
OS:Version,
  {8cd252c9-680f-4e69-b59f-75597b36505a}, ! Handle
  0.9.3;                                  ! Version Identifier

OS:Construction,
  {2bbc3cc4-734c-4505-8ad6-56c9c02b9365}, ! Handle
  90.1-2001 Res B18 Ext Slab Unheated - 8in Slab without Carpet, ! Name
  ,                                       ! Surface Rendering Name
  {e741f966-bdac-4cd8-91be-66308c584a4d}; ! Layer 1

OS:Material,
  {e741f966-bdac-4cd8-91be-66308c584a4d}, ! Handle
  MAT-CC05 8 HW CONCRETE,                 ! Name
  Rough,                                  ! Roughness
  0.20321,                                ! Thickness {m}
  1.311,                                  ! Conductivity {W/m-K}
  2240,                                   ! Density {kg/m3}
  836.8,                                  ! Specific Heat {J/kg-K}
  0.9,                                    ! Thermal Absorptance
  0.7,                                    ! Solar Absorptance
  0.7;                                    ! Visible Absorptance

OS:ComponentCost:LineItem,
  {a3917ea9-ab6a-4106-89fb-f327a5f07e6f}, ! Handle
  90.1-2001 Res B18 Ext Slab Unheated - 8in Slab without Carpet, ! Name
  ,                                       ! Type
  Construction,                           ! Line Item Type
  90.1-2001 Res B18 Ext Slab Unheated - 8in Slab without Carpet, ! Item Name
  ,                                       ! Object End Use Key
  ,                                       ! Quantity {dimensionless}
  45.52,                                  ! Material Cost {$}
  CostPerArea;                            ! Material Cost Units

OS:ComponentData,
  {d7a96bdb-522a-48f3-be88-57f253c1f57a}, ! Handle
  Component Data 1,                       ! Name
  {98e570eb-5cea-48f7-965f-12ff5c1bd0b5}, ! UUID
  {37bda3e0-d328-43ca-b1bd-90a60f09a926}, ! Version UUID
  1363981559,                             ! Creation Timestamp
  1363981559,                             ! Version Timestamp
  {2bbc3cc4-734c-4505-8ad6-56c9c02b9365}, ! Name of Object 1
  {e741f966-bdac-4cd8-91be-66308c584a4d}, ! Name of Object 2
  {a3917ea9-ab6a-4106-89fb-f327a5f07e6f}; ! Name of Object 3

