
OS:Version,
  {ac7a0733-d6be-4d57-a489-be9a1da18659}, ! Handle
  0.9.3;                                  ! Version Identifier

OS:Construction,
  {f2dc0eef-704e-4e54-9c30-77dbfa430ace}, ! Handle
  90.1-2001 Res B18 Ext Slab Unheated - 8in Slab without Carpet, ! Name
  ,                                       ! Surface Rendering Name
  {5b91bee4-e9b3-4e54-b75d-95c1498a4c70}; ! Layer 1

OS:Material,
  {5b91bee4-e9b3-4e54-b75d-95c1498a4c70}, ! Handle
  MAT-CC05 8 HW CONCRETE,                 ! Name
  Rough,                                  ! Roughness
  0.20321,                                ! Thickness {m}
  1.311,                                  ! Conductivity {W/m-K}
  2240,                                   ! Density {kg/m3}
  836.8,                                  ! Specific Heat {J/kg-K}
  0.9,                                    ! Thermal Absorptance
  0.7,                                    ! Solar Absorptance
  0.7;                                    ! Visible Absorptance

OS:ComponentCost:LineItem,
  {894e0c4f-4cb3-4f3d-bb50-cb42d69f6982}, ! Handle
  90.1-2001 Res B18 Ext Slab Unheated - 8in Slab without Carpet, ! Name
  ,                                       ! Type
  Construction,                           ! Line Item Type
  90.1-2001 Res B18 Ext Slab Unheated - 8in Slab without Carpet, ! Item Name
  ,                                       ! Object End Use Key
  ,                                       ! Quantity {dimensionless}
  45.52,                                  ! Material Cost {$}
  CostPerArea;                            ! Material Cost Units

