
OS:Version,
  {f4938655-ec35-41a9-9386-d29eabd222db}, ! Handle
  0.9.3;                                  ! Version Identifier

OS:Construction,
  {011c7a54-702d-4f75-9fef-464dbaf948b0}, ! Handle
  90.1-2001 Nonres B3 Ext Slab Unheated - 8in Slab without Carpet, ! Name
  ,                                       ! Surface Rendering Name
  {09d29aab-0bdb-4697-a4b7-03f023bfb2c5}; ! Layer 1

OS:Material,
  {09d29aab-0bdb-4697-a4b7-03f023bfb2c5}, ! Handle
  MAT-CC05 8 HW CONCRETE,                 ! Name
  Rough,                                  ! Roughness
  0.20321,                                ! Thickness {m}
  1.311,                                  ! Conductivity {W/m-K}
  2240,                                   ! Density {kg/m3}
  836.8,                                  ! Specific Heat {J/kg-K}
  0.9,                                    ! Thermal Absorptance
  0.7,                                    ! Solar Absorptance
  0.7;                                    ! Visible Absorptance

OS:ComponentCost:LineItem,
  {228c73d5-3e1a-4c70-b250-27344e50bc06}, ! Handle
  90.1-2001 Nonres B3 Ext Slab Unheated - 8in Slab without Carpet, ! Name
  ,                                       ! Type
  Construction,                           ! Line Item Type
  90.1-2001 Nonres B3 Ext Slab Unheated - 8in Slab without Carpet, ! Item Name
  ,                                       ! Object End Use Key
  ,                                       ! Quantity {dimensionless}
  45.52,                                  ! Material Cost {$}
  CostPerArea;                            ! Material Cost Units

OS:ComponentData,
  {8f554de4-42e9-46b6-bc0e-f952be5435a1}, ! Handle
  Component Data 1,                       ! Name
  {c18608f6-b873-4a3f-91f7-fb4062f601c6}, ! UUID
  {cf5ee46e-54ea-4f70-8baf-aab6535a5e9a}, ! Version UUID
  1363981301,                             ! Creation Timestamp
  1363981301,                             ! Version Timestamp
  {011c7a54-702d-4f75-9fef-464dbaf948b0}, ! Name of Object 1
  {09d29aab-0bdb-4697-a4b7-03f023bfb2c5}, ! Name of Object 2
  {228c73d5-3e1a-4c70-b250-27344e50bc06}; ! Name of Object 3

