
OS:Version,
  {9211a947-0f56-4156-a3d6-c1646e7d1bf8}, ! Handle
  0.9.3;                                  ! Version Identifier

OS:Construction,
  {abe12595-aea3-4a98-b802-c7c8f3b64935}, ! Handle
  90.1 Constructions Roof Attic and Other R-126.0, ! Name
  ,                                       ! Surface Rendering Name
  {a0765ebb-d495-47ba-ab45-3d3fb187e045}, ! Layer 1
  {5f48aa07-2ad0-42e6-911a-85f1244562a1}, ! Layer 2
  {bdc9a32f-57fd-47c3-b421-dc43e962e37e}, ! Layer 3
  {4cdd3bd0-8478-43a2-9b4e-07a4b728fe37}, ! Layer 4
  {ad934d79-337c-4b19-b1c1-4113236787a1}; ! Layer 5

OS:Material,
  {a0765ebb-d495-47ba-ab45-3d3fb187e045}, ! Handle
  Wood Shingles,                          ! Name
  VeryRough,                              ! Roughness
  0.0178,                                 ! Thickness {m}
  0.115,                                  ! Conductivity {W/m-K}
  513,                                    ! Density {kg/m3}
  1255,                                   ! Specific Heat {J/kg-K}
  0.9,                                    ! Thermal Absorptance
  0.78,                                   ! Solar Absorptance
  0.78;                                   ! Visible Absorptance

OS:Material,
  {5f48aa07-2ad0-42e6-911a-85f1244562a1}, ! Handle
  1IN Wood Decking,                       ! Name
  MediumSmooth,                           ! Roughness
  0.0254,                                 ! Thickness {m}
  0.1211,                                 ! Conductivity {W/m-K}
  593,                                    ! Density {kg/m3}
  2510,                                   ! Specific Heat {J/kg-K}
  0.9,                                    ! Thermal Absorptance
  0.78,                                   ! Solar Absorptance
  0.78;                                   ! Visible Absorptance

OS:Material,
  {bdc9a32f-57fd-47c3-b421-dc43e962e37e}, ! Handle
  Roof Insulation [91],                   ! Name
  MediumRough,                            ! Roughness
  0.872947,                               ! Thickness {m}
  0.049,                                  ! Conductivity {W/m-K}
  265,                                    ! Density {kg/m3}
  836.8,                                  ! Specific Heat {J/kg-K}
  0.9,                                    ! Thermal Absorptance
  0.7,                                    ! Solar Absorptance
  0.7;                                    ! Visible Absorptance

OS:Material,
  {4cdd3bd0-8478-43a2-9b4e-07a4b728fe37}, ! Handle
  Roof Insulation 2,                      ! Name
  MediumRough,                            ! Roughness
  0.1295,                                 ! Thickness {m}
  0.049,                                  ! Conductivity {W/m-K}
  265,                                    ! Density {kg/m3}
  836.8,                                  ! Specific Heat {J/kg-K}
  0.9,                                    ! Thermal Absorptance
  0.7,                                    ! Solar Absorptance
  0.7;                                    ! Visible Absorptance

OS:Material,
  {ad934d79-337c-4b19-b1c1-4113236787a1}, ! Handle
  1/2IN Gypsum,                           ! Name
  Smooth,                                 ! Roughness
  0.01271,                                ! Thickness {m}
  0.16,                                   ! Conductivity {W/m-K}
  784.9,                                  ! Density {kg/m3}
  830,                                    ! Specific Heat {J/kg-K}
  0.9,                                    ! Thermal Absorptance
  0.92,                                   ! Solar Absorptance
  0.92;                                   ! Visible Absorptance

OS:ComponentCost:LineItem,
  {98b1ae79-d6ad-4758-b91c-0c4f25a369af}, ! Handle
  90.1 Constructions Roof Attic and Other R-126.0, ! Name
  ,                                       ! Type
  Construction,                           ! Line Item Type
  90.1 Constructions Roof Attic and Other R-126.0, ! Item Name
  ,                                       ! Object End Use Key
  ,                                       ! Quantity {dimensionless}
  48.671,                                 ! Material Cost {$}
  CostPerArea;                            ! Material Cost Units

OS:ComponentData,
  {af5ed11b-4113-48c3-9d80-76a9eecb1bdd}, ! Handle
  Component Data 1,                       ! Name
  {bf471136-9460-4449-bbac-acd365ee82c9}, ! UUID
  {2fb8a651-800e-491e-8f65-c392a47a3804}, ! Version UUID
  1363981000,                             ! Creation Timestamp
  1363981000,                             ! Version Timestamp
  {abe12595-aea3-4a98-b802-c7c8f3b64935}, ! Name of Object 1
  {a0765ebb-d495-47ba-ab45-3d3fb187e045}, ! Name of Object 2
  {5f48aa07-2ad0-42e6-911a-85f1244562a1}, ! Name of Object 3
  {bdc9a32f-57fd-47c3-b421-dc43e962e37e}, ! Name of Object 4
  {4cdd3bd0-8478-43a2-9b4e-07a4b728fe37}, ! Name of Object 5
  {ad934d79-337c-4b19-b1c1-4113236787a1}, ! Name of Object 6
  {98b1ae79-d6ad-4758-b91c-0c4f25a369af}; ! Name of Object 7

