
OS:Version,
  {97d5b5bd-7ace-4d20-9767-df2e6a23b546}, ! Handle
  0.9.3;                                  ! Version Identifier

OS:Material,
  {eff1f800-cb42-45f5-b574-df10bcd21d04}, ! Handle
  8IN Concrete HW,                        ! Name
  MediumRough,                            ! Roughness
  0.2033,                                 ! Thickness {m}
  1.7296,                                 ! Conductivity {W/m-K}
  2243,                                   ! Density {kg/m3}
  837,                                    ! Specific Heat {J/kg-K}
  0.9,                                    ! Thermal Absorptance
  0.65,                                   ! Solar Absorptance
  0.65;                                   ! Visible Absorptance

OS:Material,
  {5e025f70-f09d-4cfa-883d-1cf1ac819720}, ! Handle
  1IN Stucco,                             ! Name
  Smooth,                                 ! Roughness
  0.0253,                                 ! Thickness {m}
  0.6918,                                 ! Conductivity {W/m-K}
  1858,                                   ! Density {kg/m3}
  837,                                    ! Specific Heat {J/kg-K}
  0.9,                                    ! Thermal Absorptance
  0.92,                                   ! Solar Absorptance
  0.92;                                   ! Visible Absorptance

OS:Material,
  {c5c73903-246d-4c71-b521-ed41ae8304df}, ! Handle
  Wall Insulation [8],                    ! Name
  MediumRough,                            ! Roughness
  0.067929,                               ! Thickness {m}
  0.0432,                                 ! Conductivity {W/m-K}
  91,                                     ! Density {kg/m3}
  837,                                    ! Specific Heat {J/kg-K}
  0.9,                                    ! Thermal Absorptance
  0.5,                                    ! Solar Absorptance
  0.5;                                    ! Visible Absorptance

OS:Material,
  {da2d5f7e-5324-4ed3-bcdb-2089f21cb1e4}, ! Handle
  1/2IN Gypsum,                           ! Name
  Smooth,                                 ! Roughness
  0.01271,                                ! Thickness {m}
  0.16,                                   ! Conductivity {W/m-K}
  784.9,                                  ! Density {kg/m3}
  830,                                    ! Specific Heat {J/kg-K}
  0.9,                                    ! Thermal Absorptance
  0.92,                                   ! Solar Absorptance
  0.92;                                   ! Visible Absorptance

OS:Construction,
  {81d4e562-588c-4de2-b111-13833237ac2d}, ! Handle
  90.1-2004 Res 5B Ext Wall Mass,         ! Name
  ,                                       ! Surface Rendering Name
  {5e025f70-f09d-4cfa-883d-1cf1ac819720}, ! Layer 1
  {eff1f800-cb42-45f5-b574-df10bcd21d04}, ! Layer 2
  {c5c73903-246d-4c71-b521-ed41ae8304df}, ! Layer 3
  {da2d5f7e-5324-4ed3-bcdb-2089f21cb1e4}; ! Layer 4

OS:ComponentCost:LineItem,
  {cb4553b0-a9dc-425d-b9d6-6407c7281e6d}, ! Handle
  90.1-2004 Res 5B Ext Wall Mass,         ! Name
  ,                                       ! Type
  Construction,                           ! Line Item Type
  90.1-2004 Res 5B Ext Wall Mass,         ! Item Name
  ,                                       ! Object End Use Key
  ,                                       ! Quantity {dimensionless}
  65.826,                                 ! Material Cost {$}
  CostPerArea;                            ! Material Cost Units

