
OS:Version,
  {6d39af56-c2f5-4fec-9e1b-b350e820c5ff}, ! Handle
  0.9.3;                                  ! Version Identifier

OS:ComponentCost:LineItem,
  {5e27dc6c-647c-4016-8937-229a9d87008d}, ! Handle
  90.1-1999 Nonres B22 Window Fixed,      ! Name
  ,                                       ! Type
  Construction,                           ! Line Item Type
  90.1-1999 Nonres B22 Window Fixed,      ! Item Name
  ,                                       ! Object End Use Key
  ,                                       ! Quantity {dimensionless}
  531.711,                                ! Material Cost {$}
  CostPerArea;                            ! Material Cost Units

OS:Construction,
  {ba5afee6-dae5-4c9b-a7ac-94f6d3c3b013}, ! Handle
  90.1-1999 Nonres B22 Window Fixed,      ! Name
  ,                                       ! Surface Rendering Name
  {47b6dd38-041e-4581-a183-e85da99471b9}; ! Layer 1

OS:WindowMaterial:Glazing,
  {47b6dd38-041e-4581-a183-e85da99471b9}, ! Handle
  Theoretical Glass [41],                 ! Name
  SpectralAverage,                        ! Optical Data Type
  ,                                       ! Window Glass Spectral Data Set Name
  0.003,                                  ! Thickness {m}
  0.633525,                               ! Solar Transmittance at Normal Incidence
  0.316475,                               ! Front Side Solar Reflectance at Normal Incidence
  0.316475,                               ! Back Side Solar Reflectance at Normal Incidence
  0.706654,                               ! Visible Transmittance at Normal Incidence
  0.243346,                               ! Front Side Visible Reflectance at Normal Incidence
  0.243346,                               ! Back Side Visible Reflectance at Normal Incidence
  0,                                      ! Infrared Transmittance at Normal Incidence
  0.9,                                    ! Front Side Infrared Hemispherical Emissivity
  0.9,                                    ! Back Side Infrared Hemispherical Emissivity
  0.0134755;                              ! Conductivity {W/m-K}

