
OS:Version,
  {b5df1531-c2ad-47fe-b4cb-2310d9b3784d}, ! Handle
  0.9.3;                                  ! Version Identifier

OS:WindowMaterial:Glazing,
  {3e8158e4-f810-4c5e-aca4-037f2c9c047d}, ! Handle
  Theoretical Glass [470],                ! Name
  SpectralAverage,                        ! Optical Data Type
  ,                                       ! Window Glass Spectral Data Set Name
  0.003,                                  ! Thickness {m}
  0.284609,                               ! Solar Transmittance at Normal Incidence
  0.665391,                               ! Front Side Solar Reflectance at Normal Incidence
  0.665391,                               ! Back Side Solar Reflectance at Normal Incidence
  0.34081,                                ! Visible Transmittance at Normal Incidence
  0.60919,                                ! Front Side Visible Reflectance at Normal Incidence
  0.60919,                                ! Back Side Visible Reflectance at Normal Incidence
  0,                                      ! Infrared Transmittance at Normal Incidence
  0.9,                                    ! Front Side Infrared Hemispherical Emissivity
  0.9,                                    ! Back Side Infrared Hemispherical Emissivity
  0.0144823;                              ! Conductivity {W/m-K}

OS:Construction,
  {23a4ef52-e97a-4249-bdb9-6029e0414da0}, ! Handle
  90.1 Windows Window Fixed 2615 Vnl-GrnMpr-Ins-Clr, ! Name
  ,                                       ! Surface Rendering Name
  {3e8158e4-f810-4c5e-aca4-037f2c9c047d}; ! Layer 1

OS:ComponentCost:LineItem,
  {4deef19a-8e84-4322-8c1e-4256d8dc4e38}, ! Handle
  90.1 Windows Window Fixed 2615 Vnl-GrnMpr-Ins-Clr, ! Name
  ,                                       ! Type
  Construction,                           ! Line Item Type
  90.1 Windows Window Fixed 2615 Vnl-GrnMpr-Ins-Clr, ! Item Name
  ,                                       ! Object End Use Key
  ,                                       ! Quantity {dimensionless}
  0,                                      ! Material Cost {$}
  CostPerArea;                            ! Material Cost Units

