
OS:Version,
  {089b6bc2-0640-4be0-88b5-206ab0f31fb3}, ! Handle
  0.9.3;                                  ! Version Identifier

OS:Construction,
  {9316d49d-d2aa-4dea-8d09-72b6c94bf389}, ! Handle
  90.1 Windows Window Fixed 2615 Vnl-GrnMpr-Ins-Clr, ! Name
  ,                                       ! Surface Rendering Name
  {2e46d199-03c1-4979-b3f8-be1424e1d923}; ! Layer 1

OS:WindowMaterial:Glazing,
  {2e46d199-03c1-4979-b3f8-be1424e1d923}, ! Handle
  Theoretical Glass [470],                ! Name
  SpectralAverage,                        ! Optical Data Type
  ,                                       ! Window Glass Spectral Data Set Name
  0.003,                                  ! Thickness {m}
  0.284609,                               ! Solar Transmittance at Normal Incidence
  0.665391,                               ! Front Side Solar Reflectance at Normal Incidence
  0.665391,                               ! Back Side Solar Reflectance at Normal Incidence
  0.34081,                                ! Visible Transmittance at Normal Incidence
  0.60919,                                ! Front Side Visible Reflectance at Normal Incidence
  0.60919,                                ! Back Side Visible Reflectance at Normal Incidence
  0,                                      ! Infrared Transmittance at Normal Incidence
  0.9,                                    ! Front Side Infrared Hemispherical Emissivity
  0.9,                                    ! Back Side Infrared Hemispherical Emissivity
  0.0144823;                              ! Conductivity {W/m-K}

OS:ComponentCost:LineItem,
  {8fb482a5-1ce2-40d4-9dae-d2aa5302d29f}, ! Handle
  90.1 Windows Window Fixed 2615 Vnl-GrnMpr-Ins-Clr, ! Name
  ,                                       ! Type
  Construction,                           ! Line Item Type
  90.1 Windows Window Fixed 2615 Vnl-GrnMpr-Ins-Clr, ! Item Name
  ,                                       ! Object End Use Key
  ,                                       ! Quantity {dimensionless}
  0,                                      ! Material Cost {$}
  CostPerArea;                            ! Material Cost Units

OS:ComponentData,
  {354ff5c8-b615-48a5-b11f-f9f5164568bb}, ! Handle
  Component Data 1,                       ! Name
  {999d2fe2-bd31-4733-9147-044efa490729}, ! UUID
  {5a36d1c3-5b10-4137-bd6d-8e621b05e791}, ! Version UUID
  1363981021,                             ! Creation Timestamp
  1363981021,                             ! Version Timestamp
  {9316d49d-d2aa-4dea-8d09-72b6c94bf389}, ! Name of Object 1
  {2e46d199-03c1-4979-b3f8-be1424e1d923}, ! Name of Object 2
  {8fb482a5-1ce2-40d4-9dae-d2aa5302d29f}; ! Name of Object 3

