
OS:Version,
  {118a87b5-9469-4a97-83c6-c4cc65a26c77}, ! Handle
  0.9.3;                                  ! Version Identifier

OS:Construction,
  {aa8c04d9-e04c-4932-9253-41a62efc8cb8}, ! Handle
  90.1-2007 Nonres 6B Ext Wall Metal Building, ! Name
  ,                                       ! Surface Rendering Name
  {a2a15aee-e937-4328-b8b7-844346e098ac}, ! Layer 1
  {3da960d7-ffde-4af8-acf7-bde511a38f33}, ! Layer 2
  {f401189b-4576-4472-9729-ee5c7583491a}; ! Layer 3

OS:Material,
  {a2a15aee-e937-4328-b8b7-844346e098ac}, ! Handle
  Metal Siding,                           ! Name
  Smooth,                                 ! Roughness
  0.0015,                                 ! Thickness {m}
  44.96,                                  ! Conductivity {W/m-K}
  7688.86,                                ! Density {kg/m3}
  410,                                    ! Specific Heat {J/kg-K}
  0.9,                                    ! Thermal Absorptance
  0.2,                                    ! Solar Absorptance
  0.2;                                    ! Visible Absorptance

OS:Material,
  {3da960d7-ffde-4af8-acf7-bde511a38f33}, ! Handle
  Wall Insulation [23],                   ! Name
  MediumRough,                            ! Roughness
  0.0598327,                              ! Thickness {m}
  0.045,                                  ! Conductivity {W/m-K}
  265,                                    ! Density {kg/m3}
  836.8,                                  ! Specific Heat {J/kg-K}
  0.9,                                    ! Thermal Absorptance
  0.7,                                    ! Solar Absorptance
  0.7;                                    ! Visible Absorptance

OS:Material,
  {f401189b-4576-4472-9729-ee5c7583491a}, ! Handle
  1/2IN Gypsum,                           ! Name
  Smooth,                                 ! Roughness
  0.01271,                                ! Thickness {m}
  0.16,                                   ! Conductivity {W/m-K}
  784.9,                                  ! Density {kg/m3}
  830,                                    ! Specific Heat {J/kg-K}
  0.9,                                    ! Thermal Absorptance
  0.92,                                   ! Solar Absorptance
  0.92;                                   ! Visible Absorptance

OS:ComponentCost:LineItem,
  {4b3ff45c-a9aa-412a-a942-bcbc4b306bf8}, ! Handle
  90.1-2007 Nonres 6B Ext Wall Metal Building, ! Name
  ,                                       ! Type
  Construction,                           ! Line Item Type
  90.1-2007 Nonres 6B Ext Wall Metal Building, ! Item Name
  ,                                       ! Object End Use Key
  ,                                       ! Quantity {dimensionless}
  98.777,                                 ! Material Cost {$}
  CostPerArea;                            ! Material Cost Units

