
OS:Version,
  {18ef695e-30e2-465f-bb2a-5ba3a6f035c4}, ! Handle
  0.9.3;                                  ! Version Identifier

OS:Construction,
  {6203a3c0-9f06-4da2-be2a-1fb47404e96a}, ! Handle
  90.1-2007 Nonres 6B Ext Wall Metal Building, ! Name
  ,                                       ! Surface Rendering Name
  {042c0f67-b6b6-4e63-af78-9bbe00641d2e}, ! Layer 1
  {267b514b-3996-42ca-8984-c05362b93b2f}, ! Layer 2
  {3d01b5c4-0221-4d37-9b34-d7382ef02347}; ! Layer 3

OS:Material,
  {042c0f67-b6b6-4e63-af78-9bbe00641d2e}, ! Handle
  Metal Siding,                           ! Name
  Smooth,                                 ! Roughness
  0.0015,                                 ! Thickness {m}
  44.96,                                  ! Conductivity {W/m-K}
  7688.86,                                ! Density {kg/m3}
  410,                                    ! Specific Heat {J/kg-K}
  0.9,                                    ! Thermal Absorptance
  0.2,                                    ! Solar Absorptance
  0.2;                                    ! Visible Absorptance

OS:Material,
  {267b514b-3996-42ca-8984-c05362b93b2f}, ! Handle
  Wall Insulation [23],                   ! Name
  MediumRough,                            ! Roughness
  0.0598327,                              ! Thickness {m}
  0.045,                                  ! Conductivity {W/m-K}
  265,                                    ! Density {kg/m3}
  836.8,                                  ! Specific Heat {J/kg-K}
  0.9,                                    ! Thermal Absorptance
  0.7,                                    ! Solar Absorptance
  0.7;                                    ! Visible Absorptance

OS:Material,
  {3d01b5c4-0221-4d37-9b34-d7382ef02347}, ! Handle
  1/2IN Gypsum,                           ! Name
  Smooth,                                 ! Roughness
  0.01271,                                ! Thickness {m}
  0.16,                                   ! Conductivity {W/m-K}
  784.9,                                  ! Density {kg/m3}
  830,                                    ! Specific Heat {J/kg-K}
  0.9,                                    ! Thermal Absorptance
  0.92,                                   ! Solar Absorptance
  0.92;                                   ! Visible Absorptance

OS:ComponentCost:LineItem,
  {219b384b-19cc-4683-a245-f63f14980444}, ! Handle
  90.1-2007 Nonres 6B Ext Wall Metal Building, ! Name
  ,                                       ! Type
  Construction,                           ! Line Item Type
  90.1-2007 Nonres 6B Ext Wall Metal Building, ! Item Name
  ,                                       ! Object End Use Key
  ,                                       ! Quantity {dimensionless}
  98.777,                                 ! Material Cost {$}
  CostPerArea;                            ! Material Cost Units

OS:ComponentData,
  {acd50e7f-c16f-4a8f-bef1-60a97067e5ac}, ! Handle
  Component Data 1,                       ! Name
  {d9d6b529-23c0-40da-b4f4-c0c24f671988}, ! UUID
  {e85e4fdf-5a41-422b-9543-1902adaf5c88}, ! Version UUID
  1363981813,                             ! Creation Timestamp
  1363981813,                             ! Version Timestamp
  {6203a3c0-9f06-4da2-be2a-1fb47404e96a}, ! Name of Object 1
  {042c0f67-b6b6-4e63-af78-9bbe00641d2e}, ! Name of Object 2
  {267b514b-3996-42ca-8984-c05362b93b2f}, ! Name of Object 3
  {3d01b5c4-0221-4d37-9b34-d7382ef02347}, ! Name of Object 4
  {219b384b-19cc-4683-a245-f63f14980444}; ! Name of Object 5

