
OS:Version,
  {52e0c001-e614-439f-898a-edb670456185}, ! Handle
  0.9.3;                                  ! Version Identifier

OS:Construction,
  {c6aacdbb-4d96-4629-ac05-0a3e8f6ac45c}, ! Handle
  90.1-2001 Nonres B10 Int Wall,          ! Name
  ,                                       ! Surface Rendering Name
  {220d42b1-e71c-4a60-9d31-aba8217d67a5}, ! Layer 1
  {220d42b1-e71c-4a60-9d31-aba8217d67a5}; ! Layer 2

OS:Material,
  {220d42b1-e71c-4a60-9d31-aba8217d67a5}, ! Handle
  GP01 1/2 GYPSUM,                        ! Name
  Smooth,                                 ! Roughness
  0.01271,                                ! Thickness {m}
  0.16,                                   ! Conductivity {W/m-K}
  800,                                    ! Density {kg/m3}
  1090,                                   ! Specific Heat {J/kg-K}
  0.9,                                    ! Thermal Absorptance
  0.7,                                    ! Solar Absorptance
  0.5;                                    ! Visible Absorptance

OS:ComponentCost:LineItem,
  {122ea3ae-cbcc-4e86-a581-9c3ae673a4bc}, ! Handle
  90.1-2001 Nonres B10 Int Wall,          ! Name
  ,                                       ! Type
  Construction,                           ! Line Item Type
  90.1-2001 Nonres B10 Int Wall,          ! Item Name
  ,                                       ! Object End Use Key
  ,                                       ! Quantity {dimensionless}
  0,                                      ! Material Cost {$}
  CostPerArea;                            ! Material Cost Units

OS:ComponentData,
  {cdd9160b-cab0-45ac-96f5-8a9f4e3a4b9a}, ! Handle
  Component Data 1,                       ! Name
  {80f20511-ae38-42e1-9e4b-4297e33a564f}, ! UUID
  {84cbbb62-41be-4852-9573-a380cbd0362f}, ! Version UUID
  1363981337,                             ! Creation Timestamp
  1363981337,                             ! Version Timestamp
  {c6aacdbb-4d96-4629-ac05-0a3e8f6ac45c}, ! Name of Object 1
  {220d42b1-e71c-4a60-9d31-aba8217d67a5}, ! Name of Object 2
  {122ea3ae-cbcc-4e86-a581-9c3ae673a4bc}; ! Name of Object 3

