
OS:Version,
  {d2d3ee49-2870-4711-9d4b-3a6869019337}, ! Handle
  0.9.3;                                  ! Version Identifier

OS:Material,
  {4d05304f-6306-486f-9139-1550d04d61ac}, ! Handle
  Floor Insulation [13],                  ! Name
  MediumRough,                            ! Roughness
  0.00242656,                             ! Thickness {m}
  0.045,                                  ! Conductivity {W/m-K}
  265,                                    ! Density {kg/m3}
  836.8,                                  ! Specific Heat {J/kg-K}
  0.9,                                    ! Thermal Absorptance
  0.7,                                    ! Solar Absorptance
  0.7;                                    ! Visible Absorptance

OS:Construction,
  {29fcf3f5-9c74-4c0f-9cbb-158aa5c6768f}, ! Handle
  AEDG SHC Nonres 5B Ext Slab Unheated - 8in Slab with Carpet, ! Name
  ,                                       ! Surface Rendering Name
  {4d05304f-6306-486f-9139-1550d04d61ac}, ! Layer 1
  {c963601b-b5d0-4f13-8f41-5d22247d89dc}, ! Layer 2
  {365fd1d8-9260-45ec-a6d9-0fd72556759b}; ! Layer 3

OS:Material,
  {c963601b-b5d0-4f13-8f41-5d22247d89dc}, ! Handle
  MAT-CC05 8 HW CONCRETE,                 ! Name
  Rough,                                  ! Roughness
  0.20321,                                ! Thickness {m}
  1.311,                                  ! Conductivity {W/m-K}
  2240,                                   ! Density {kg/m3}
  836.8,                                  ! Specific Heat {J/kg-K}
  0.9,                                    ! Thermal Absorptance
  0.7,                                    ! Solar Absorptance
  0.7;                                    ! Visible Absorptance

OS:Material:NoMass,
  {365fd1d8-9260-45ec-a6d9-0fd72556759b}, ! Handle
  CP02 CARPET PAD,                        ! Name
  VeryRough,                              ! Roughness
  0.21648,                                ! Thermal Resistance {m2-K/W}
  0.9,                                    ! Thermal Absorptance
  0.7,                                    ! Solar Absorptance
  0.8;                                    ! Visible Absorptance

OS:ComponentCost:LineItem,
  {99448d3a-c8d3-432e-a1e4-69c5b5797116}, ! Handle
  AEDG SHC Nonres 5B Ext Slab Unheated - 8in Slab with Carpet, ! Name
  ,                                       ! Type
  Construction,                           ! Line Item Type
  AEDG SHC Nonres 5B Ext Slab Unheated - 8in Slab with Carpet, ! Item Name
  ,                                       ! Object End Use Key
  ,                                       ! Quantity {dimensionless}
  0,                                      ! Material Cost {$}
  CostPerArea;                            ! Material Cost Units

