
OS:Version,
  {28805bb1-e2ab-49e5-8aa5-23f370436cc6}, ! Handle
  0.9.3;                                  ! Version Identifier

OS:Material,
  {d6912c7d-df70-40da-8ada-a23a1f5ed72b}, ! Handle
  1IN Stucco,                             ! Name
  Smooth,                                 ! Roughness
  0.0253,                                 ! Thickness {m}
  0.6918,                                 ! Conductivity {W/m-K}
  1858,                                   ! Density {kg/m3}
  837,                                    ! Specific Heat {J/kg-K}
  0.9,                                    ! Thermal Absorptance
  0.92,                                   ! Solar Absorptance
  0.92;                                   ! Visible Absorptance

OS:Material,
  {ffb4b47a-ff88-4b9f-91f2-bd30b751564e}, ! Handle
  1/2IN Gypsum,                           ! Name
  Smooth,                                 ! Roughness
  0.01271,                                ! Thickness {m}
  0.16,                                   ! Conductivity {W/m-K}
  784.9,                                  ! Density {kg/m3}
  830,                                    ! Specific Heat {J/kg-K}
  0.9,                                    ! Thermal Absorptance
  0.92,                                   ! Solar Absorptance
  0.92;                                   ! Visible Absorptance

OS:Construction,
  {147bdff1-fbf4-48e6-8810-c5c03e810f31}, ! Handle
  90.1-2001 Res B9 Ext Wall Mass,         ! Name
  ,                                       ! Surface Rendering Name
  {d6912c7d-df70-40da-8ada-a23a1f5ed72b}, ! Layer 1
  {be092a60-304a-424a-879b-a06da0c36365}, ! Layer 2
  {c54cdd2e-cec6-4248-a6d9-5db76dc39d34}, ! Layer 3
  {ffb4b47a-ff88-4b9f-91f2-bd30b751564e}; ! Layer 4

OS:Material,
  {be092a60-304a-424a-879b-a06da0c36365}, ! Handle
  8IN Concrete HW,                        ! Name
  MediumRough,                            ! Roughness
  0.2033,                                 ! Thickness {m}
  1.7296,                                 ! Conductivity {W/m-K}
  2243,                                   ! Density {kg/m3}
  837,                                    ! Specific Heat {J/kg-K}
  0.9,                                    ! Thermal Absorptance
  0.65,                                   ! Solar Absorptance
  0.65;                                   ! Visible Absorptance

OS:Material,
  {c54cdd2e-cec6-4248-a6d9-5db76dc39d34}, ! Handle
  Wall Insulation [4],                    ! Name
  MediumRough,                            ! Roughness
  0.0338606,                              ! Thickness {m}
  0.0432,                                 ! Conductivity {W/m-K}
  91,                                     ! Density {kg/m3}
  837,                                    ! Specific Heat {J/kg-K}
  0.9,                                    ! Thermal Absorptance
  0.5,                                    ! Solar Absorptance
  0.5;                                    ! Visible Absorptance

OS:ComponentCost:LineItem,
  {4a3f10b2-40c3-46b4-acb3-32b7dab9f1f0}, ! Handle
  90.1-2001 Res B9 Ext Wall Mass,         ! Name
  ,                                       ! Type
  Construction,                           ! Line Item Type
  90.1-2001 Res B9 Ext Wall Mass,         ! Item Name
  ,                                       ! Object End Use Key
  ,                                       ! Quantity {dimensionless}
  58.897,                                 ! Material Cost {$}
  CostPerArea;                            ! Material Cost Units

