
OS:Version,
  {39a315be-e2c0-43a0-9ad4-5c58c1ecabe6}, ! Handle
  0.9.3;                                  ! Version Identifier

OS:Material,
  {61105b09-b520-4c4c-86a8-a8f430d38b16}, ! Handle
  8IN Concrete HW,                        ! Name
  MediumRough,                            ! Roughness
  0.2033,                                 ! Thickness {m}
  1.7296,                                 ! Conductivity {W/m-K}
  2243,                                   ! Density {kg/m3}
  837,                                    ! Specific Heat {J/kg-K}
  0.9,                                    ! Thermal Absorptance
  0.65,                                   ! Solar Absorptance
  0.65;                                   ! Visible Absorptance

OS:ComponentCost:LineItem,
  {07afd6bf-d802-4d2f-b819-c2f8411d1c3a}, ! Handle
  90.1-1999 Res B13 Ext Wall Mass,        ! Name
  ,                                       ! Type
  Construction,                           ! Line Item Type
  90.1-1999 Res B13 Ext Wall Mass,        ! Item Name
  ,                                       ! Object End Use Key
  ,                                       ! Quantity {dimensionless}
  63.663,                                 ! Material Cost {$}
  CostPerArea;                            ! Material Cost Units

OS:Material,
  {06209095-1667-4ccd-a368-64bf4b53c0c6}, ! Handle
  1/2IN Gypsum,                           ! Name
  Smooth,                                 ! Roughness
  0.01271,                                ! Thickness {m}
  0.16,                                   ! Conductivity {W/m-K}
  784.9,                                  ! Density {kg/m3}
  830,                                    ! Specific Heat {J/kg-K}
  0.9,                                    ! Thermal Absorptance
  0.92,                                   ! Solar Absorptance
  0.92;                                   ! Visible Absorptance

OS:Material,
  {945fa31e-9a83-41c6-aa98-dc97f241438b}, ! Handle
  1IN Stucco,                             ! Name
  Smooth,                                 ! Roughness
  0.0253,                                 ! Thickness {m}
  0.6918,                                 ! Conductivity {W/m-K}
  1858,                                   ! Density {kg/m3}
  837,                                    ! Specific Heat {J/kg-K}
  0.9,                                    ! Thermal Absorptance
  0.92,                                   ! Solar Absorptance
  0.92;                                   ! Visible Absorptance

OS:Material,
  {3784b936-0e45-48c1-ba2e-82219bf1fca1}, ! Handle
  Wall Insulation [7],                    ! Name
  MediumRough,                            ! Roughness
  0.056577,                               ! Thickness {m}
  0.0432,                                 ! Conductivity {W/m-K}
  91,                                     ! Density {kg/m3}
  837,                                    ! Specific Heat {J/kg-K}
  0.9,                                    ! Thermal Absorptance
  0.5,                                    ! Solar Absorptance
  0.5;                                    ! Visible Absorptance

OS:Construction,
  {e2e698d4-ecdb-4d66-ada1-a9889be51974}, ! Handle
  90.1-1999 Res B13 Ext Wall Mass,        ! Name
  ,                                       ! Surface Rendering Name
  {945fa31e-9a83-41c6-aa98-dc97f241438b}, ! Layer 1
  {61105b09-b520-4c4c-86a8-a8f430d38b16}, ! Layer 2
  {3784b936-0e45-48c1-ba2e-82219bf1fca1}, ! Layer 3
  {06209095-1667-4ccd-a368-64bf4b53c0c6}; ! Layer 4

