
OS:Version,
  {f228fe85-1d2c-40be-8d4c-26b16b7f00fa}, ! Handle
  0.9.3;                                  ! Version Identifier

OS:ComponentCost:LineItem,
  {f7d970fc-08b0-44cf-bb89-b425a5ed566e}, ! Handle
  AEDG-SmOffice 8A Ext Slab Unheated - 8in Slab with Carpet, ! Name
  ,                                       ! Type
  Construction,                           ! Line Item Type
  AEDG-SmOffice 8A Ext Slab Unheated - 8in Slab with Carpet, ! Item Name
  ,                                       ! Object End Use Key
  ,                                       ! Quantity {dimensionless}
  45.52,                                  ! Material Cost {$}
  CostPerArea;                            ! Material Cost Units

OS:Construction,
  {17ae1452-515b-4f40-8263-6cc3ff21c249}, ! Handle
  AEDG-SmOffice 8A Ext Slab Unheated - 8in Slab with Carpet, ! Name
  ,                                       ! Surface Rendering Name
  {f904e8dd-d643-4b43-ba9e-d342b63d2e2d}, ! Layer 1
  {e4b9c5a3-11f9-4b45-8211-fcbed5c1fb59}; ! Layer 2

OS:Material,
  {f904e8dd-d643-4b43-ba9e-d342b63d2e2d}, ! Handle
  MAT-CC05 8 HW CONCRETE,                 ! Name
  Rough,                                  ! Roughness
  0.20321,                                ! Thickness {m}
  1.311,                                  ! Conductivity {W/m-K}
  2240,                                   ! Density {kg/m3}
  836.8,                                  ! Specific Heat {J/kg-K}
  0.9,                                    ! Thermal Absorptance
  0.7,                                    ! Solar Absorptance
  0.7;                                    ! Visible Absorptance

OS:Material:NoMass,
  {e4b9c5a3-11f9-4b45-8211-fcbed5c1fb59}, ! Handle
  CP02 CARPET PAD,                        ! Name
  VeryRough,                              ! Roughness
  0.21648,                                ! Thermal Resistance {m2-K/W}
  0.9,                                    ! Thermal Absorptance
  0.7,                                    ! Solar Absorptance
  0.8;                                    ! Visible Absorptance

