
OS:Version,
  {73a260d6-3596-4abb-acbb-a5b3ce88d57b}, ! Handle
  0.9.3;                                  ! Version Identifier

OS:Material,
  {82ca2c5f-8eca-43ff-90e1-fa4ea76f2bf7}, ! Handle
  1/2IN Gypsum,                           ! Name
  Smooth,                                 ! Roughness
  0.01271,                                ! Thickness {m}
  0.16,                                   ! Conductivity {W/m-K}
  784.9,                                  ! Density {kg/m3}
  830,                                    ! Specific Heat {J/kg-K}
  0.9,                                    ! Thermal Absorptance
  0.92,                                   ! Solar Absorptance
  0.92;                                   ! Visible Absorptance

OS:Construction,
  {54e1f0a9-68d9-442b-b323-8e15da82704d}, ! Handle
  189.1-2009 Nonres 5B Roof Attic and Other, ! Name
  ,                                       ! Surface Rendering Name
  {bd2385cf-1e50-47f6-91cd-288e41b26089}, ! Layer 1
  {5eebf03b-45d6-4fbd-a826-d9429899c2de}, ! Layer 2
  {7b524b6b-2d92-4026-84d8-7d54202dbf4c}, ! Layer 3
  {82ca2c5f-8eca-43ff-90e1-fa4ea76f2bf7}; ! Layer 4

OS:Material,
  {bd2385cf-1e50-47f6-91cd-288e41b26089}, ! Handle
  Wood Shingles,                          ! Name
  VeryRough,                              ! Roughness
  0.0178,                                 ! Thickness {m}
  0.115,                                  ! Conductivity {W/m-K}
  513,                                    ! Density {kg/m3}
  1255,                                   ! Specific Heat {J/kg-K}
  0.9,                                    ! Thermal Absorptance
  0.78,                                   ! Solar Absorptance
  0.78;                                   ! Visible Absorptance

OS:Material,
  {5eebf03b-45d6-4fbd-a826-d9429899c2de}, ! Handle
  1IN Wood Decking,                       ! Name
  MediumSmooth,                           ! Roughness
  0.0254,                                 ! Thickness {m}
  0.1211,                                 ! Conductivity {W/m-K}
  593,                                    ! Density {kg/m3}
  2510,                                   ! Specific Heat {J/kg-K}
  0.9,                                    ! Thermal Absorptance
  0.78,                                   ! Solar Absorptance
  0.78;                                   ! Visible Absorptance

OS:Material,
  {7b524b6b-2d92-4026-84d8-7d54202dbf4c}, ! Handle
  Roof Insulation [23],                   ! Name
  MediumRough,                            ! Roughness
  0.375211,                               ! Thickness {m}
  0.049,                                  ! Conductivity {W/m-K}
  265,                                    ! Density {kg/m3}
  836.8,                                  ! Specific Heat {J/kg-K}
  0.9,                                    ! Thermal Absorptance
  0.7,                                    ! Solar Absorptance
  0.7;                                    ! Visible Absorptance

OS:ComponentCost:LineItem,
  {4a35f41a-346f-4705-aa94-3fef08945a06}, ! Handle
  189.1-2009 Nonres 5B Roof Attic and Other, ! Name
  ,                                       ! Type
  Construction,                           ! Line Item Type
  189.1-2009 Nonres 5B Roof Attic and Other, ! Item Name
  ,                                       ! Object End Use Key
  ,                                       ! Quantity {dimensionless}
  36.871,                                 ! Material Cost {$}
  CostPerArea;                            ! Material Cost Units

