
OS:Version,
  {67e135c9-0433-4314-96f5-c090cf71056b}, ! Handle
  0.9.3;                                  ! Version Identifier

OS:Construction,
  {212666d5-874e-458b-81a0-1d750f243cec}, ! Handle
  AEDG-SmOffice 5B Ext Wall Steel-Framed, ! Name
  ,                                       ! Surface Rendering Name
  {79a5a9ae-6697-48d2-ad77-2bde83f7658f}, ! Layer 1
  {e90202af-69da-453d-9abf-823b1e20b666}, ! Layer 2
  {cec7659d-b016-4de5-bf33-104542cb5c4f}; ! Layer 3

OS:Material:NoMass,
  {79a5a9ae-6697-48d2-ad77-2bde83f7658f}, ! Handle
  MAT-SHEATH,                             ! Name
  Rough,                                  ! Roughness
  0.36256,                                ! Thermal Resistance {m2-K/W}
  0.9,                                    ! Thermal Absorptance
  0.7,                                    ! Solar Absorptance
  0.7;                                    ! Visible Absorptance

OS:Material,
  {e90202af-69da-453d-9abf-823b1e20b666}, ! Handle
  Wall Insulation [10],                   ! Name
  MediumRough,                            ! Roughness
  0.0971136,                              ! Thickness {m}
  0.045,                                  ! Conductivity {W/m-K}
  265,                                    ! Density {kg/m3}
  836.8,                                  ! Specific Heat {J/kg-K}
  0.9,                                    ! Thermal Absorptance
  0.7,                                    ! Solar Absorptance
  0.7;                                    ! Visible Absorptance

OS:Material,
  {cec7659d-b016-4de5-bf33-104542cb5c4f}, ! Handle
  1/2IN Gypsum,                           ! Name
  Smooth,                                 ! Roughness
  0.01271,                                ! Thickness {m}
  0.16,                                   ! Conductivity {W/m-K}
  784.9,                                  ! Density {kg/m3}
  830,                                    ! Specific Heat {J/kg-K}
  0.9,                                    ! Thermal Absorptance
  0.92,                                   ! Solar Absorptance
  0.92;                                   ! Visible Absorptance

OS:ComponentCost:LineItem,
  {7ed753a4-94a3-4b17-b092-d775831c796d}, ! Handle
  AEDG-SmOffice 5B Ext Wall Steel-Framed, ! Name
  ,                                       ! Type
  Construction,                           ! Line Item Type
  AEDG-SmOffice 5B Ext Wall Steel-Framed, ! Item Name
  ,                                       ! Object End Use Key
  ,                                       ! Quantity {dimensionless}
  94.657,                                 ! Material Cost {$}
  CostPerArea;                            ! Material Cost Units

OS:ComponentData,
  {44d50926-53df-4f7c-b231-ecadd0b11ee7}, ! Handle
  Component Data 1,                       ! Name
  {34dbfab9-f6f3-40fd-9c00-87f247690e99}, ! UUID
  {af460cfd-d614-4059-a2bb-e47ba65753bf}, ! Version UUID
  1363981954,                             ! Creation Timestamp
  1363981954,                             ! Version Timestamp
  {212666d5-874e-458b-81a0-1d750f243cec}, ! Name of Object 1
  {79a5a9ae-6697-48d2-ad77-2bde83f7658f}, ! Name of Object 2
  {e90202af-69da-453d-9abf-823b1e20b666}, ! Name of Object 3
  {cec7659d-b016-4de5-bf33-104542cb5c4f}, ! Name of Object 4
  {7ed753a4-94a3-4b17-b092-d775831c796d}; ! Name of Object 5

