
OS:Version,
  {93b97436-aaae-467b-9a90-633dc339ea7c}, ! Handle
  0.9.3;                                  ! Version Identifier

OS:Construction,
  {93e88a46-7f09-4c1f-81c8-7669dbf25764}, ! Handle
  90.1-2007 Nonres 3A Ext Slab Unheated - 4in Slab with Carpet, ! Name
  ,                                       ! Surface Rendering Name
  {6a475d16-6b12-4370-9f6b-d1b29b4a4514}, ! Layer 1
  {c3125513-9c0d-4fcc-a670-1e0a9cb677f7}; ! Layer 2

OS:Material,
  {6a475d16-6b12-4370-9f6b-d1b29b4a4514}, ! Handle
  MAT-CC05 4 HW CONCRETE,                 ! Name
  Rough,                                  ! Roughness
  0.1016,                                 ! Thickness {m}
  1.311,                                  ! Conductivity {W/m-K}
  2240,                                   ! Density {kg/m3}
  836.8,                                  ! Specific Heat {J/kg-K}
  0.9,                                    ! Thermal Absorptance
  0.7,                                    ! Solar Absorptance
  0.7;                                    ! Visible Absorptance

OS:Material:NoMass,
  {c3125513-9c0d-4fcc-a670-1e0a9cb677f7}, ! Handle
  CP02 CARPET PAD,                        ! Name
  VeryRough,                              ! Roughness
  0.21648,                                ! Thermal Resistance {m2-K/W}
  0.9,                                    ! Thermal Absorptance
  0.7,                                    ! Solar Absorptance
  0.8;                                    ! Visible Absorptance

OS:ComponentCost:LineItem,
  {f65d1487-55fe-4f1d-aeaf-3e9f3b0428c2}, ! Handle
  90.1-2007 Nonres 3A Ext Slab Unheated - 4in Slab with Carpet, ! Name
  ,                                       ! Type
  Construction,                           ! Line Item Type
  90.1-2007 Nonres 3A Ext Slab Unheated - 4in Slab with Carpet, ! Item Name
  ,                                       ! Object End Use Key
  ,                                       ! Quantity {dimensionless}
  45.52,                                  ! Material Cost {$}
  CostPerArea;                            ! Material Cost Units

OS:ComponentData,
  {d26ea8be-f09d-480f-af1d-dbbdf71f4225}, ! Handle
  Component Data 1,                       ! Name
  {107a1e9e-eb32-466d-a1d0-8c70718702e2}, ! UUID
  {e187fae6-6603-43b3-9e48-5e1f04036f44}, ! Version UUID
  1363981796,                             ! Creation Timestamp
  1363981796,                             ! Version Timestamp
  {93e88a46-7f09-4c1f-81c8-7669dbf25764}, ! Name of Object 1
  {6a475d16-6b12-4370-9f6b-d1b29b4a4514}, ! Name of Object 2
  {c3125513-9c0d-4fcc-a670-1e0a9cb677f7}, ! Name of Object 3
  {f65d1487-55fe-4f1d-aeaf-3e9f3b0428c2}; ! Name of Object 4

