
OS:Version,
  {c0a356f7-f448-45ea-be42-ffa7f556ab80}, ! Handle
  0.9.3;                                  ! Version Identifier

OS:Material,
  {5939298e-3f56-41e8-a3f9-9b389c5006bd}, ! Handle
  MAT-CC05 4 HW CONCRETE,                 ! Name
  Rough,                                  ! Roughness
  0.1016,                                 ! Thickness {m}
  1.311,                                  ! Conductivity {W/m-K}
  2240,                                   ! Density {kg/m3}
  836.8,                                  ! Specific Heat {J/kg-K}
  0.9,                                    ! Thermal Absorptance
  0.7,                                    ! Solar Absorptance
  0.7;                                    ! Visible Absorptance

OS:ComponentCost:LineItem,
  {1c474afc-c84c-4530-9746-d21484310b83}, ! Handle
  90.1-2007 Nonres 3A Ext Slab Unheated - 4in Slab with Carpet, ! Name
  ,                                       ! Type
  Construction,                           ! Line Item Type
  90.1-2007 Nonres 3A Ext Slab Unheated - 4in Slab with Carpet, ! Item Name
  ,                                       ! Object End Use Key
  ,                                       ! Quantity {dimensionless}
  45.52,                                  ! Material Cost {$}
  CostPerArea;                            ! Material Cost Units

OS:Construction,
  {989b6877-55ec-46a1-87de-a9f22bf3653e}, ! Handle
  90.1-2007 Nonres 3A Ext Slab Unheated - 4in Slab with Carpet, ! Name
  ,                                       ! Surface Rendering Name
  {5939298e-3f56-41e8-a3f9-9b389c5006bd}, ! Layer 1
  {56e2dd59-ff8b-4be1-aee9-dd10d47455fe}; ! Layer 2

OS:Material:NoMass,
  {56e2dd59-ff8b-4be1-aee9-dd10d47455fe}, ! Handle
  CP02 CARPET PAD,                        ! Name
  VeryRough,                              ! Roughness
  0.21648,                                ! Thermal Resistance {m2-K/W}
  0.9,                                    ! Thermal Absorptance
  0.7,                                    ! Solar Absorptance
  0.8;                                    ! Visible Absorptance

