
OS:Version,
  {592bae7b-bae7-43f6-896d-ce4a6dc84d9f}, ! Handle
  0.9.3;                                  ! Version Identifier

OS:Construction,
  {f348b868-8735-496f-8f20-e5e64588cc93}, ! Handle
  AEDG K12 Nonres 5B Roof IEAD,           ! Name
  ,                                       ! Surface Rendering Name
  {d551a419-9aa8-4f4c-86fe-2965d7445971}, ! Layer 1
  {8a41b876-8e66-4fb6-a7e0-744ff8f049f5}, ! Layer 2
  {d6de4e84-be9a-4843-a201-039ac0cfb75b}; ! Layer 3

OS:Material,
  {d551a419-9aa8-4f4c-86fe-2965d7445971}, ! Handle
  Roof Membrane,                          ! Name
  VeryRough,                              ! Roughness
  0.0095,                                 ! Thickness {m}
  0.16,                                   ! Conductivity {W/m-K}
  1121.29,                                ! Density {kg/m3}
  1460,                                   ! Specific Heat {J/kg-K}
  0.9,                                    ! Thermal Absorptance
  0.7,                                    ! Solar Absorptance
  0.7;                                    ! Visible Absorptance

OS:Material,
  {8a41b876-8e66-4fb6-a7e0-744ff8f049f5}, ! Handle
  Roof Insulation,                        ! Name
  MediumRough,                            ! Roughness
  0.124958,                               ! Thickness {m}
  0.049,                                  ! Conductivity {W/m-K}
  265,                                    ! Density {kg/m3}
  836.8,                                  ! Specific Heat {J/kg-K}
  0.9,                                    ! Thermal Absorptance
  0.7,                                    ! Solar Absorptance
  0.7;                                    ! Visible Absorptance

OS:Material,
  {d6de4e84-be9a-4843-a201-039ac0cfb75b}, ! Handle
  Metal Decking,                          ! Name
  MediumSmooth,                           ! Roughness
  0.001524,                               ! Thickness {m}
  45.006,                                 ! Conductivity {W/m-K}
  7680,                                   ! Density {kg/m3}
  418.4,                                  ! Specific Heat {J/kg-K}
  0.9,                                    ! Thermal Absorptance
  0.7,                                    ! Solar Absorptance
  0.3;                                    ! Visible Absorptance

OS:ComponentCost:LineItem,
  {452bb5a8-487b-4f1e-8c86-9246cb87bc3c}, ! Handle
  AEDG K12 Nonres 5B Roof IEAD,           ! Name
  ,                                       ! Type
  Construction,                           ! Line Item Type
  AEDG K12 Nonres 5B Roof IEAD,           ! Item Name
  ,                                       ! Object End Use Key
  ,                                       ! Quantity {dimensionless}
  98.49,                                  ! Material Cost {$}
  CostPerArea;                            ! Material Cost Units

OS:ComponentData,
  {db9fb50d-05f3-4cdf-822d-8d58ce08152f}, ! Handle
  Component Data 1,                       ! Name
  {b2474fa8-1444-436b-9363-e711289bf1f8}, ! UUID
  {313977d0-3150-434a-bc73-86729d4a1882}, ! Version UUID
  1363981896,                             ! Creation Timestamp
  1363981896,                             ! Version Timestamp
  {f348b868-8735-496f-8f20-e5e64588cc93}, ! Name of Object 1
  {d551a419-9aa8-4f4c-86fe-2965d7445971}, ! Name of Object 2
  {8a41b876-8e66-4fb6-a7e0-744ff8f049f5}, ! Name of Object 3
  {d6de4e84-be9a-4843-a201-039ac0cfb75b}, ! Name of Object 4
  {452bb5a8-487b-4f1e-8c86-9246cb87bc3c}; ! Name of Object 5

