
OS:Version,
  {ccd27cf5-79cc-40b9-a040-a9c157f29b5a}, !- Handle
  1.1.0;                                  !- Version Identifier

OS:Construction,
  {7b6c8319-0b55-4049-97f2-d3fa7a21aa86}, !- Handle
  Sgl Ref-B-H Clr 6mm,                    !- Name
  ,                                       !- Surface Rendering Name
  {8f8c463e-fa77-4db4-af64-83b69a171d1b}; !- Layer 1

OS:WindowMaterial:Glazing,
  {8f8c463e-fa77-4db4-af64-83b69a171d1b}, !- Handle
  REF B CLEAR HI 6MM,                     !- Name
  SpectralAverage,                        !- Optical Data Type
  ,                                       !- Window Glass Spectral Data Set Name
  0.006,                                  !- Thickness {m}
  0.24,                                   !- Solar Transmittance at Normal Incidence
  0.16,                                   !- Front Side Solar Reflectance at Normal Incidence
  0.32,                                   !- Back Side Solar Reflectance at Normal Incidence
  0.3,                                    !- Visible Transmittance at Normal Incidence
  0.16,                                   !- Front Side Visible Reflectance at Normal Incidence
  0.29,                                   !- Back Side Visible Reflectance at Normal Incidence
  0,                                      !- Infrared Transmittance at Normal Incidence
  0.84,                                   !- Front Side Infrared Hemispherical Emissivity
  0.6,                                    !- Back Side Infrared Hemispherical Emissivity
  0.9;                                    !- Conductivity {W/m-K}

OS:ComponentData,
  {529c055b-3d0f-453d-af71-7d7696d99854}, !- Handle
  Component Data 1,                       !- Name
  {b2718d80-6dcf-45c4-af48-26b650b6a9d0}, !- UUID
  {4812454d-5a42-4c3e-b803-243b74711651}, !- Version UUID
  1384380197,                             !- Creation Timestamp
  1384380197,                             !- Version Timestamp
  {7b6c8319-0b55-4049-97f2-d3fa7a21aa86}, !- Name of Object 1
  {8f8c463e-fa77-4db4-af64-83b69a171d1b}; !- Name of Object 2

