
OS:Version,
  {4d80463f-8887-4a69-bbc1-1376f707f936}, !- Handle
  1.1.0;                                  !- Version Identifier

OS:Construction,
  {cea9a5f9-ba3c-4d22-8c5f-77e00bf4f995}, !- Handle
  Sgl Ref-B-H Clr 6mm,                    !- Name
  ,                                       !- Surface Rendering Name
  {2bfb052c-53e9-439a-a46e-72108c930289}; !- Layer 1

OS:WindowMaterial:Glazing,
  {2bfb052c-53e9-439a-a46e-72108c930289}, !- Handle
  REF B CLEAR HI 6MM,                     !- Name
  SpectralAverage,                        !- Optical Data Type
  ,                                       !- Window Glass Spectral Data Set Name
  0.006,                                  !- Thickness {m}
  0.24,                                   !- Solar Transmittance at Normal Incidence
  0.16,                                   !- Front Side Solar Reflectance at Normal Incidence
  0.32,                                   !- Back Side Solar Reflectance at Normal Incidence
  0.3,                                    !- Visible Transmittance at Normal Incidence
  0.16,                                   !- Front Side Visible Reflectance at Normal Incidence
  0.29,                                   !- Back Side Visible Reflectance at Normal Incidence
  0,                                      !- Infrared Transmittance at Normal Incidence
  0.84,                                   !- Front Side Infrared Hemispherical Emissivity
  0.6,                                    !- Back Side Infrared Hemispherical Emissivity
  0.9;                                    !- Conductivity {W/m-K}

