
OS:Version,
  {b3877650-69a0-4e33-a8cb-36e07e318728}, ! Handle
  0.9.3;                                  ! Version Identifier

OS:Material,
  {dd89979a-d82f-4f4a-86c6-412ed2f95c3f}, ! Handle
  Metal Siding,                           ! Name
  Smooth,                                 ! Roughness
  0.0015,                                 ! Thickness {m}
  44.96,                                  ! Conductivity {W/m-K}
  7688.86,                                ! Density {kg/m3}
  410,                                    ! Specific Heat {J/kg-K}
  0.9,                                    ! Thermal Absorptance
  0.2,                                    ! Solar Absorptance
  0.2;                                    ! Visible Absorptance

OS:ComponentCost:LineItem,
  {e8eea4c0-7da8-4714-95cc-bc620cc0ebc6}, ! Handle
  90.1-1999 Res B24 Ext Wall Metal Building, ! Name
  ,                                       ! Type
  Construction,                           ! Line Item Type
  90.1-1999 Res B24 Ext Wall Metal Building, ! Item Name
  ,                                       ! Object End Use Key
  ,                                       ! Quantity {dimensionless}
  107.698,                                ! Material Cost {$}
  CostPerArea;                            ! Material Cost Units

OS:Construction,
  {f0e0df51-7b07-4def-b5bd-0d70b8938b8a}, ! Handle
  90.1-1999 Res B24 Ext Wall Metal Building, ! Name
  ,                                       ! Surface Rendering Name
  {dd89979a-d82f-4f4a-86c6-412ed2f95c3f}, ! Layer 1
  {c5af727e-57c3-4d1d-b8e0-daabb9c7a9ce}, ! Layer 2
  {c4221134-e017-4cc6-8e5e-48225faefd63}; ! Layer 3

OS:Material,
  {c5af727e-57c3-4d1d-b8e0-daabb9c7a9ce}, ! Handle
  Wall Insulation [9],                    ! Name
  MediumRough,                            ! Roughness
  0.128642,                               ! Thickness {m}
  0.045,                                  ! Conductivity {W/m-K}
  265,                                    ! Density {kg/m3}
  836.8,                                  ! Specific Heat {J/kg-K}
  0.9,                                    ! Thermal Absorptance
  0.7,                                    ! Solar Absorptance
  0.7;                                    ! Visible Absorptance

OS:Material,
  {c4221134-e017-4cc6-8e5e-48225faefd63}, ! Handle
  1/2IN Gypsum,                           ! Name
  Smooth,                                 ! Roughness
  0.01271,                                ! Thickness {m}
  0.16,                                   ! Conductivity {W/m-K}
  784.9,                                  ! Density {kg/m3}
  830,                                    ! Specific Heat {J/kg-K}
  0.9,                                    ! Thermal Absorptance
  0.92,                                   ! Solar Absorptance
  0.92;                                   ! Visible Absorptance

