
OS:Version,
  {5e2f074d-a6e5-4ed7-bccb-6297c55f855a}, ! Handle
  0.9.3;                                  ! Version Identifier

OS:Construction,
  {fdcc2b65-40b0-4bc8-9694-710fbd15b25c}, ! Handle
  90.1-2001 Nonres B11 Ext Slab Unheated - 4in Slab without Carpet, ! Name
  ,                                       ! Surface Rendering Name
  {c6cf2153-9bae-44bd-b265-47efa170b07b}; ! Layer 1

OS:Material,
  {c6cf2153-9bae-44bd-b265-47efa170b07b}, ! Handle
  MAT-CC05 4 HW CONCRETE,                 ! Name
  Rough,                                  ! Roughness
  0.1016,                                 ! Thickness {m}
  1.311,                                  ! Conductivity {W/m-K}
  2240,                                   ! Density {kg/m3}
  836.8,                                  ! Specific Heat {J/kg-K}
  0.9,                                    ! Thermal Absorptance
  0.7,                                    ! Solar Absorptance
  0.7;                                    ! Visible Absorptance

OS:ComponentCost:LineItem,
  {5aa050d0-92ae-4686-bd23-dca61c624b0f}, ! Handle
  90.1-2001 Nonres B11 Ext Slab Unheated - 4in Slab without Carpet, ! Name
  ,                                       ! Type
  Construction,                           ! Line Item Type
  90.1-2001 Nonres B11 Ext Slab Unheated - 4in Slab without Carpet, ! Item Name
  ,                                       ! Object End Use Key
  ,                                       ! Quantity {dimensionless}
  45.52,                                  ! Material Cost {$}
  CostPerArea;                            ! Material Cost Units

OS:ComponentData,
  {82124fac-42ab-479b-ab94-69dbaf654979}, ! Handle
  Component Data 1,                       ! Name
  {a6103043-51f3-4562-a56a-d736e3306b67}, ! UUID
  {2a00cb62-e7b1-40bc-b61d-4990b8b8659a}, ! Version UUID
  1363981346,                             ! Creation Timestamp
  1363981346,                             ! Version Timestamp
  {fdcc2b65-40b0-4bc8-9694-710fbd15b25c}, ! Name of Object 1
  {c6cf2153-9bae-44bd-b265-47efa170b07b}, ! Name of Object 2
  {5aa050d0-92ae-4686-bd23-dca61c624b0f}; ! Name of Object 3

