
OS:Version,
  {3760e36b-1c78-425b-aba4-5bf53c2daff5}, ! Handle
  0.9.3;                                  ! Version Identifier

OS:Material,
  {14c481ac-4b9f-4029-af3a-d992407448d4}, ! Handle
  MAT-CC05 8 HW CONCRETE,                 ! Name
  Rough,                                  ! Roughness
  0.20321,                                ! Thickness {m}
  1.311,                                  ! Conductivity {W/m-K}
  2240,                                   ! Density {kg/m3}
  836.8,                                  ! Specific Heat {J/kg-K}
  0.9,                                    ! Thermal Absorptance
  0.7,                                    ! Solar Absorptance
  0.7;                                    ! Visible Absorptance

OS:Construction,
  {f7e5bab8-a871-41eb-91ce-e7d927e8882a}, ! Handle
  90.1-2007 Res 8A Ext Slab Unheated - 8in Slab without Carpet, ! Name
  ,                                       ! Surface Rendering Name
  {14c481ac-4b9f-4029-af3a-d992407448d4}; ! Layer 1

OS:ComponentCost:LineItem,
  {88d00320-9bc7-481e-a56f-6caed1b58971}, ! Handle
  90.1-2007 Res 8A Ext Slab Unheated - 8in Slab without Carpet, ! Name
  ,                                       ! Type
  Construction,                           ! Line Item Type
  90.1-2007 Res 8A Ext Slab Unheated - 8in Slab without Carpet, ! Item Name
  ,                                       ! Object End Use Key
  ,                                       ! Quantity {dimensionless}
  45.52,                                  ! Material Cost {$}
  CostPerArea;                            ! Material Cost Units

