
OS:Version,
  {c5f44cc8-4317-4e98-99f6-c503efdd402e}, ! Handle
  0.9.3;                                  ! Version Identifier

OS:WindowMaterial:Glazing,
  {02dc02ca-47c0-4f83-9295-0d4c8380924a}, ! Handle
  Theoretical Glass [68],                 ! Name
  SpectralAverage,                        ! Optical Data Type
  ,                                       ! Window Glass Spectral Data Set Name
  0.003,                                  ! Thickness {m}
  0.346211,                               ! Solar Transmittance at Normal Incidence
  0.603789,                               ! Front Side Solar Reflectance at Normal Incidence
  0.603789,                               ! Back Side Solar Reflectance at Normal Incidence
  0.360158,                               ! Visible Transmittance at Normal Incidence
  0.589842,                               ! Front Side Visible Reflectance at Normal Incidence
  0.589842,                               ! Back Side Visible Reflectance at Normal Incidence
  0,                                      ! Infrared Transmittance at Normal Incidence
  0.999,                                  ! Front Side Infrared Hemispherical Emissivity
  0.999,                                  ! Back Side Infrared Hemispherical Emissivity
  72.7123;                                ! Conductivity {W/m-K}

OS:ComponentCost:LineItem,
  {5d96008e-063a-440a-9c63-cbd0b1e43218}, ! Handle
  90.1-1999 Res B8 Skylight without Curb, ! Name
  ,                                       ! Type
  Construction,                           ! Line Item Type
  90.1-1999 Res B8 Skylight without Curb, ! Item Name
  ,                                       ! Object End Use Key
  ,                                       ! Quantity {dimensionless}
  527.515,                                ! Material Cost {$}
  CostPerArea;                            ! Material Cost Units

OS:Construction,
  {9dc0f861-b117-4b25-83b7-4dfb27e3ab7e}, ! Handle
  90.1-1999 Res B8 Skylight without Curb, ! Name
  ,                                       ! Surface Rendering Name
  {02dc02ca-47c0-4f83-9295-0d4c8380924a}; ! Layer 1

