
OS:Version,
  {8f4839e1-73cd-4d77-a9c2-55d0bf73a7eb}, ! Handle
  0.9.3;                                  ! Version Identifier

OS:ComponentCost:LineItem,
  {d0cb13e0-cd8e-4a45-acc7-aa2759d94fb9}, ! Handle
  90.1-2001 Res B13 Ext Slab Unheated - 4in Slab with Carpet, ! Name
  ,                                       ! Type
  Construction,                           ! Line Item Type
  90.1-2001 Res B13 Ext Slab Unheated - 4in Slab with Carpet, ! Item Name
  ,                                       ! Object End Use Key
  ,                                       ! Quantity {dimensionless}
  45.52,                                  ! Material Cost {$}
  CostPerArea;                            ! Material Cost Units

OS:Construction,
  {2059492a-2b4f-4eb5-aa3c-db9b08a1ed3f}, ! Handle
  90.1-2001 Res B13 Ext Slab Unheated - 4in Slab with Carpet, ! Name
  ,                                       ! Surface Rendering Name
  {7b9272aa-fb7f-47dc-beb8-781c2272feab}, ! Layer 1
  {c72b4843-2c9a-4a7b-874d-ca3746b8501f}; ! Layer 2

OS:Material,
  {7b9272aa-fb7f-47dc-beb8-781c2272feab}, ! Handle
  MAT-CC05 4 HW CONCRETE,                 ! Name
  Rough,                                  ! Roughness
  0.1016,                                 ! Thickness {m}
  1.311,                                  ! Conductivity {W/m-K}
  2240,                                   ! Density {kg/m3}
  836.8,                                  ! Specific Heat {J/kg-K}
  0.9,                                    ! Thermal Absorptance
  0.7,                                    ! Solar Absorptance
  0.7;                                    ! Visible Absorptance

OS:Material:NoMass,
  {c72b4843-2c9a-4a7b-874d-ca3746b8501f}, ! Handle
  CP02 CARPET PAD,                        ! Name
  VeryRough,                              ! Roughness
  0.21648,                                ! Thermal Resistance {m2-K/W}
  0.9,                                    ! Thermal Absorptance
  0.7,                                    ! Solar Absorptance
  0.8;                                    ! Visible Absorptance

