
OS:Version,
  {d01290f6-2e58-42d4-a730-c972f2a7e540}, ! Handle
  0.9.3;                                  ! Version Identifier

OS:Construction,
  {f3a61506-2fb6-45e1-84a3-8c865fc138eb}, ! Handle
  90.1 Windows Window Fixed 2531 Vnl-Clr-Std-ClrSpe, ! Name
  ,                                       ! Surface Rendering Name
  {3b168013-4cd0-4054-9c20-84f11e065091}; ! Layer 1

OS:WindowMaterial:Glazing,
  {3b168013-4cd0-4054-9c20-84f11e065091}, ! Handle
  Theoretical Glass [302],                ! Name
  SpectralAverage,                        ! Optical Data Type
  ,                                       ! Window Glass Spectral Data Set Name
  0.003,                                  ! Thickness {m}
  0.504894,                               ! Solar Transmittance at Normal Incidence
  0.445106,                               ! Front Side Solar Reflectance at Normal Incidence
  0.445106,                               ! Back Side Solar Reflectance at Normal Incidence
  0.629707,                               ! Visible Transmittance at Normal Incidence
  0.320293,                               ! Front Side Visible Reflectance at Normal Incidence
  0.320293,                               ! Back Side Visible Reflectance at Normal Incidence
  0,                                      ! Infrared Transmittance at Normal Incidence
  0.9,                                    ! Front Side Infrared Hemispherical Emissivity
  0.9,                                    ! Back Side Infrared Hemispherical Emissivity
  0.00956703;                             ! Conductivity {W/m-K}

OS:ComponentCost:LineItem,
  {4f82b064-4c9d-4b88-b42c-4eb29efc8ca1}, ! Handle
  90.1 Windows Window Fixed 2531 Vnl-Clr-Std-ClrSpe, ! Name
  ,                                       ! Type
  Construction,                           ! Line Item Type
  90.1 Windows Window Fixed 2531 Vnl-Clr-Std-ClrSpe, ! Item Name
  ,                                       ! Object End Use Key
  ,                                       ! Quantity {dimensionless}
  0,                                      ! Material Cost {$}
  CostPerArea;                            ! Material Cost Units

