
! 
OS:Version,
  {8503bb35-3288-4176-9c41-752f3d976c4b}, !- Handle
  1.13.0;                                 !- Version Identifier


! 
OS:Material,
  {7d770fbb-de12-42e4-9aef-fc2f0ac61e37}, !- Handle
  Aislamiento: SATE
WEBER: weber.therm placa PF 30 (0.030 m)
R: 1.4 m2K/W,                             !- Name
  MediumRough,                                 !- Roughness
  0.03,                                    !- Thickness {m}
  0.021,                                    !- Conductivity {W/m-K}
  35.0,                                    !- Density {kg/m3}
  800.0,                                    !- Specific Heat {J/kg-K}
  0.9,                                    !- Thermal Absorptance
  0.6,                                    !- Solar Absorptance
  0.6;                                    !- Visible Absorptance

