
OS:Version,
  {dfcb5c91-5fdc-41b2-949d-12c9d0cff4a8}, ! Handle
  0.9.3;                                  ! Version Identifier

OS:Material,
  {b807c162-30d5-46e7-a524-e4e749d5d0e7}, ! Handle
  GP01 1/2 GYPSUM 1,                      ! Name
  Smooth,                                 ! Roughness
  0.01271,                                ! Thickness {m}
  0.16,                                   ! Conductivity {W/m-K}
  800,                                    ! Density {kg/m3}
  1090,                                   ! Specific Heat {J/kg-K}
  0.9,                                    ! Thermal Absorptance
  0.7,                                    ! Solar Absorptance
  0.5;                                    ! Visible Absorptance

OS:Construction,
  {c5fe695b-74a4-458a-84be-fcc3effd3c24}, ! Handle
  Title 24-2008 Nonres 15 Int Wall,       ! Name
  ,                                       ! Surface Rendering Name
  {b5bc7027-0507-40b2-b74d-3c0bc7a402e6}, ! Layer 1
  {b5bc7027-0507-40b2-b74d-3c0bc7a402e6}; ! Layer 2

OS:Material,
  {b5bc7027-0507-40b2-b74d-3c0bc7a402e6}, ! Handle
  GP01 1/2 GYPSUM,                        ! Name
  Smooth,                                 ! Roughness
  0.01271,                                ! Thickness {m}
  0.16,                                   ! Conductivity {W/m-K}
  800,                                    ! Density {kg/m3}
  1090,                                   ! Specific Heat {J/kg-K}
  0.9,                                    ! Thermal Absorptance
  0.7,                                    ! Solar Absorptance
  0.5;                                    ! Visible Absorptance

OS:ComponentCost:LineItem,
  {99297184-683e-4708-a53e-975603cbdf84}, ! Handle
  Title 24-2008 Nonres 15 Int Wall,       ! Name
  ,                                       ! Type
  Construction,                           ! Line Item Type
  Title 24-2008 Nonres 15 Int Wall,       ! Item Name
  ,                                       ! Object End Use Key
  ,                                       ! Quantity {dimensionless}
  0,                                      ! Material Cost {$}
  CostPerArea;                            ! Material Cost Units

