
OS:Version,
  {9501bdaa-3fa8-4492-b8fe-036a9604d63e}, ! Handle
  0.9.3;                                  ! Version Identifier

OS:ComponentCost:LineItem,
  {b4a038b8-f306-492a-993a-9af6133aed0a}, ! Handle
  90.1-2001 Res B17 Ext Wall Wood-Framed and Other, ! Name
  ,                                       ! Type
  Construction,                           ! Line Item Type
  90.1-2001 Res B17 Ext Wall Wood-Framed and Other, ! Item Name
  ,                                       ! Object End Use Key
  ,                                       ! Quantity {dimensionless}
  73.056,                                 ! Material Cost {$}
  CostPerArea;                            ! Material Cost Units

OS:Construction,
  {748c4e4a-aece-4846-9511-462e5082a27b}, ! Handle
  90.1-2001 Res B17 Ext Wall Wood-Framed and Other, ! Name
  ,                                       ! Surface Rendering Name
  {6f733f42-5e64-4f31-ad1b-16c79b275f3e}, ! Layer 1
  {a36ca219-97e9-4670-9a2b-0d4b300e8bbe}, ! Layer 2
  {c6ab73ec-02ad-48d3-89d0-7152a610057b}; ! Layer 3

OS:Material,
  {6f733f42-5e64-4f31-ad1b-16c79b275f3e}, ! Handle
  Wood Siding,                            ! Name
  MediumSmooth,                           ! Roughness
  0.01,                                   ! Thickness {m}
  0.11,                                   ! Conductivity {W/m-K}
  544.62,                                 ! Density {kg/m3}
  1210,                                   ! Specific Heat {J/kg-K}
  0.9,                                    ! Thermal Absorptance
  0.78,                                   ! Solar Absorptance
  0.78;                                   ! Visible Absorptance

OS:Material,
  {a36ca219-97e9-4670-9a2b-0d4b300e8bbe}, ! Handle
  Wall Insulation [2],                    ! Name
  MediumRough,                            ! Roughness
  0.0746874,                              ! Thickness {m}
  0.045,                                  ! Conductivity {W/m-K}
  265,                                    ! Density {kg/m3}
  836.8,                                  ! Specific Heat {J/kg-K}
  0.9,                                    ! Thermal Absorptance
  0.7,                                    ! Solar Absorptance
  0.7;                                    ! Visible Absorptance

OS:Material,
  {c6ab73ec-02ad-48d3-89d0-7152a610057b}, ! Handle
  1/2IN Gypsum,                           ! Name
  Smooth,                                 ! Roughness
  0.01271,                                ! Thickness {m}
  0.16,                                   ! Conductivity {W/m-K}
  784.9,                                  ! Density {kg/m3}
  830,                                    ! Specific Heat {J/kg-K}
  0.9,                                    ! Thermal Absorptance
  0.92,                                   ! Solar Absorptance
  0.92;                                   ! Visible Absorptance

