
OS:Version,
  {f507c05d-9c5b-4530-b097-44034af38e0e}, !- Handle
  1.1.0;                                  !- Version Identifier

OS:Construction,
  {bfcdabe0-ea5e-4df4-9fc5-dd083ea390ba}, !- Handle
  Sgl Ref-D Tint 6mm,                     !- Name
  ,                                       !- Surface Rendering Name
  {8f1be87d-503f-4cbf-b74e-7f5535a492cf}; !- Layer 1

OS:WindowMaterial:Glazing,
  {8f1be87d-503f-4cbf-b74e-7f5535a492cf}, !- Handle
  REF D TINT 6MM,                         !- Name
  SpectralAverage,                        !- Optical Data Type
  ,                                       !- Window Glass Spectral Data Set Name
  0.006,                                  !- Thickness {m}
  0.3,                                    !- Solar Transmittance at Normal Incidence
  0.14,                                   !- Front Side Solar Reflectance at Normal Incidence
  0.36,                                   !- Back Side Solar Reflectance at Normal Incidence
  0.25,                                   !- Visible Transmittance at Normal Incidence
  0.18,                                   !- Front Side Visible Reflectance at Normal Incidence
  0.45,                                   !- Back Side Visible Reflectance at Normal Incidence
  0,                                      !- Infrared Transmittance at Normal Incidence
  0.84,                                   !- Front Side Infrared Hemispherical Emissivity
  0.82,                                   !- Back Side Infrared Hemispherical Emissivity
  0.9;                                    !- Conductivity {W/m-K}

