
OS:Version,
  {7eb3ee59-d956-40c9-bb46-c49a1074fbe8}, !- Handle
  1.1.0;                                  !- Version Identifier

OS:Construction,
  {dd43b476-77be-4d9b-be68-a164fb8e4af7}, !- Handle
  Sgl Ref-D Tint 6mm,                     !- Name
  ,                                       !- Surface Rendering Name
  {b03d47bd-4525-43bb-a195-832542d6dceb}; !- Layer 1

OS:WindowMaterial:Glazing,
  {b03d47bd-4525-43bb-a195-832542d6dceb}, !- Handle
  REF D TINT 6MM,                         !- Name
  SpectralAverage,                        !- Optical Data Type
  ,                                       !- Window Glass Spectral Data Set Name
  0.006,                                  !- Thickness {m}
  0.3,                                    !- Solar Transmittance at Normal Incidence
  0.14,                                   !- Front Side Solar Reflectance at Normal Incidence
  0.36,                                   !- Back Side Solar Reflectance at Normal Incidence
  0.25,                                   !- Visible Transmittance at Normal Incidence
  0.18,                                   !- Front Side Visible Reflectance at Normal Incidence
  0.45,                                   !- Back Side Visible Reflectance at Normal Incidence
  0,                                      !- Infrared Transmittance at Normal Incidence
  0.84,                                   !- Front Side Infrared Hemispherical Emissivity
  0.82,                                   !- Back Side Infrared Hemispherical Emissivity
  0.9;                                    !- Conductivity {W/m-K}

OS:ComponentData,
  {51fc95a3-44b5-41c4-91af-a279a49d360a}, !- Handle
  Component Data 1,                       !- Name
  {4e880c13-f9de-47e8-9385-5657ffebeec0}, !- UUID
  {3afb5bbe-7a78-4b5f-be05-2e993cd1cd32}, !- Version UUID
  1384380188,                             !- Creation Timestamp
  1384380188,                             !- Version Timestamp
  {dd43b476-77be-4d9b-be68-a164fb8e4af7}, !- Name of Object 1
  {b03d47bd-4525-43bb-a195-832542d6dceb}; !- Name of Object 2

