
OS:Version,
  {37e6cf03-7b29-498f-8a61-f3f161094740}, ! Handle
  0.9.3;                                  ! Version Identifier

OS:Material,
  {a8a51642-5c9f-4dbb-aa51-0230e680d0ee}, ! Handle
  1/2IN Gypsum,                           ! Name
  Smooth,                                 ! Roughness
  0.01271,                                ! Thickness {m}
  0.16,                                   ! Conductivity {W/m-K}
  784.9,                                  ! Density {kg/m3}
  830,                                    ! Specific Heat {J/kg-K}
  0.9,                                    ! Thermal Absorptance
  0.92,                                   ! Solar Absorptance
  0.92;                                   ! Visible Absorptance

OS:Material,
  {838b3256-ff45-4572-9a8b-9cf4c51468df}, ! Handle
  Metal Siding,                           ! Name
  Smooth,                                 ! Roughness
  0.0015,                                 ! Thickness {m}
  44.96,                                  ! Conductivity {W/m-K}
  7688.86,                                ! Density {kg/m3}
  410,                                    ! Specific Heat {J/kg-K}
  0.9,                                    ! Thermal Absorptance
  0.2,                                    ! Solar Absorptance
  0.2;                                    ! Visible Absorptance

OS:Construction,
  {c96d09a0-e1fb-4bb2-8e69-94bbd0d9bd0e}, ! Handle
  AEDG-SmOffice 3A Ext Wall Metal Building, ! Name
  ,                                       ! Surface Rendering Name
  {838b3256-ff45-4572-9a8b-9cf4c51468df}, ! Layer 1
  {a16dc92b-d633-4612-8d59-1c335700ca8a}, ! Layer 2
  {a8a51642-5c9f-4dbb-aa51-0230e680d0ee}; ! Layer 3

OS:Material,
  {a16dc92b-d633-4612-8d59-1c335700ca8a}, ! Handle
  Wall Insulation,                        ! Name
  MediumRough,                            ! Roughness
  0.0598725,                              ! Thickness {m}
  0.045,                                  ! Conductivity {W/m-K}
  265,                                    ! Density {kg/m3}
  836.8,                                  ! Specific Heat {J/kg-K}
  0.9,                                    ! Thermal Absorptance
  0.7,                                    ! Solar Absorptance
  0.7;                                    ! Visible Absorptance

OS:ComponentCost:LineItem,
  {a705a5d8-6462-4936-a295-9afb9a16a58f}, ! Handle
  AEDG-SmOffice 3A Ext Wall Metal Building, ! Name
  ,                                       ! Type
  Construction,                           ! Line Item Type
  AEDG-SmOffice 3A Ext Wall Metal Building, ! Item Name
  ,                                       ! Object End Use Key
  ,                                       ! Quantity {dimensionless}
  98.78,                                  ! Material Cost {$}
  CostPerArea;                            ! Material Cost Units

