
OS:Version,
  {4f85dd70-ffb6-46b3-96b7-41da19a4b42f}, ! Handle
  0.9.3;                                  ! Version Identifier

OS:Material,
  {d46af98a-c7fb-4e93-8209-cd142c410b26}, ! Handle
  MAT-CC05 4 HW CONCRETE,                 ! Name
  Rough,                                  ! Roughness
  0.1016,                                 ! Thickness {m}
  1.311,                                  ! Conductivity {W/m-K}
  2240,                                   ! Density {kg/m3}
  836.8,                                  ! Specific Heat {J/kg-K}
  0.9,                                    ! Thermal Absorptance
  0.7,                                    ! Solar Absorptance
  0.7;                                    ! Visible Absorptance

OS:ComponentCost:LineItem,
  {2b6bbecb-cac8-45e6-9604-fff1d284a9b0}, ! Handle
  189.1-2009 Res 4B Ext Slab Unheated - 4in Slab with Carpet, ! Name
  ,                                       ! Type
  Construction,                           ! Line Item Type
  189.1-2009 Res 4B Ext Slab Unheated - 4in Slab with Carpet, ! Item Name
  ,                                       ! Object End Use Key
  ,                                       ! Quantity {dimensionless}
  45.52,                                  ! Material Cost {$}
  CostPerArea;                            ! Material Cost Units

OS:Construction,
  {97830108-d1fe-4320-9421-ddbc2816d9dc}, ! Handle
  189.1-2009 Res 4B Ext Slab Unheated - 4in Slab with Carpet, ! Name
  ,                                       ! Surface Rendering Name
  {d46af98a-c7fb-4e93-8209-cd142c410b26}, ! Layer 1
  {10ccc869-30bb-46c9-89be-55eff6f3cf36}; ! Layer 2

OS:Material:NoMass,
  {10ccc869-30bb-46c9-89be-55eff6f3cf36}, ! Handle
  CP02 CARPET PAD,                        ! Name
  VeryRough,                              ! Roughness
  0.21648,                                ! Thermal Resistance {m2-K/W}
  0.9,                                    ! Thermal Absorptance
  0.7,                                    ! Solar Absorptance
  0.8;                                    ! Visible Absorptance

