
OS:Version,
  {35b84596-3eac-4282-8b1a-7c09cd6848e9}, ! Handle
  0.9.3;                                  ! Version Identifier

OS:Construction,
  {df016a84-1361-4dcc-8a56-d86ee92bac53}, ! Handle
  90.1-2007 Res 8A Ext Slab Unheated - 8in Slab with Carpet, ! Name
  ,                                       ! Surface Rendering Name
  {e3382168-9cbd-4d79-b9e5-5393f802da30}, ! Layer 1
  {443e10b6-b865-45e1-bf13-88cf30240004}; ! Layer 2

OS:Material,
  {e3382168-9cbd-4d79-b9e5-5393f802da30}, ! Handle
  MAT-CC05 8 HW CONCRETE,                 ! Name
  Rough,                                  ! Roughness
  0.20321,                                ! Thickness {m}
  1.311,                                  ! Conductivity {W/m-K}
  2240,                                   ! Density {kg/m3}
  836.8,                                  ! Specific Heat {J/kg-K}
  0.9,                                    ! Thermal Absorptance
  0.7,                                    ! Solar Absorptance
  0.7;                                    ! Visible Absorptance

OS:Material:NoMass,
  {443e10b6-b865-45e1-bf13-88cf30240004}, ! Handle
  CP02 CARPET PAD,                        ! Name
  VeryRough,                              ! Roughness
  0.21648,                                ! Thermal Resistance {m2-K/W}
  0.9,                                    ! Thermal Absorptance
  0.7,                                    ! Solar Absorptance
  0.8;                                    ! Visible Absorptance

OS:ComponentCost:LineItem,
  {1b796494-82d5-47da-abdf-76645257f583}, ! Handle
  90.1-2007 Res 8A Ext Slab Unheated - 8in Slab with Carpet, ! Name
  ,                                       ! Type
  Construction,                           ! Line Item Type
  90.1-2007 Res 8A Ext Slab Unheated - 8in Slab with Carpet, ! Item Name
  ,                                       ! Object End Use Key
  ,                                       ! Quantity {dimensionless}
  45.52,                                  ! Material Cost {$}
  CostPerArea;                            ! Material Cost Units

