
OS:Version,
  {f8e2a28a-755f-4c52-b2d0-5028a3d40587}, ! Handle
  0.9.3;                                  ! Version Identifier

OS:Construction,
  {80ce698d-98c9-4971-ae93-6c21afc9aa43}, ! Handle
  AEDG SHC Nonres 8A Attic Floor,         ! Name
  ,                                       ! Surface Rendering Name
  {6f13f214-88da-4531-9368-cd7b24d6792f}, ! Layer 1
  {92ec066f-8aca-426f-aaeb-192fc0329936}, ! Layer 2
  {f552ed7b-ff8c-45fe-ba8f-4d7803e7c9cd}; ! Layer 3

OS:Material,
  {6f13f214-88da-4531-9368-cd7b24d6792f}, ! Handle
  1/2IN Gypsum Top,                       ! Name
  Smooth,                                 ! Roughness
  0.01271,                                ! Thickness {m}
  0.16,                                   ! Conductivity {W/m-K}
  784.9,                                  ! Density {kg/m3}
  830,                                    ! Specific Heat {J/kg-K}
  0.9,                                    ! Thermal Absorptance
  0.92,                                   ! Solar Absorptance
  0.92;                                   ! Visible Absorptance

OS:Material,
  {92ec066f-8aca-426f-aaeb-192fc0329936}, ! Handle
  AtticFloor Insulation [10],             ! Name
  MediumRough,                            ! Roughness
  0.35812,                                ! Thickness {m}
  0.049,                                  ! Conductivity {W/m-K}
  265,                                    ! Density {kg/m3}
  836.8,                                  ! Specific Heat {J/kg-K}
  0.9,                                    ! Thermal Absorptance
  0.7,                                    ! Solar Absorptance
  0.7;                                    ! Visible Absorptance

OS:Material,
  {f552ed7b-ff8c-45fe-ba8f-4d7803e7c9cd}, ! Handle
  1/2IN Gypsum Bottom,                    ! Name
  Smooth,                                 ! Roughness
  0.01271,                                ! Thickness {m}
  0.16,                                   ! Conductivity {W/m-K}
  784.9,                                  ! Density {kg/m3}
  830,                                    ! Specific Heat {J/kg-K}
  0.9,                                    ! Thermal Absorptance
  0.92,                                   ! Solar Absorptance
  0.92;                                   ! Visible Absorptance

OS:ComponentCost:LineItem,
  {f8575b8b-322f-4f21-a872-672ae8b99352}, ! Handle
  AEDG SHC Nonres 8A Attic Floor,         ! Name
  ,                                       ! Type
  Construction,                           ! Line Item Type
  AEDG SHC Nonres 8A Attic Floor,         ! Item Name
  ,                                       ! Object End Use Key
  ,                                       ! Quantity {dimensionless}
  0,                                      ! Material Cost {$}
  CostPerArea;                            ! Material Cost Units

OS:ComponentData,
  {a3b3d7fd-fbe7-4b11-8ced-4db107727a08}, ! Handle
  Component Data 1,                       ! Name
  {918cbe86-c4b4-49f9-a35a-85fc2fd225c7}, ! UUID
  {2e89f61d-86c1-47a1-a5b5-5290fa3e5841}, ! Version UUID
  1363981933,                             ! Creation Timestamp
  1363981933,                             ! Version Timestamp
  {80ce698d-98c9-4971-ae93-6c21afc9aa43}, ! Name of Object 1
  {6f13f214-88da-4531-9368-cd7b24d6792f}, ! Name of Object 2
  {92ec066f-8aca-426f-aaeb-192fc0329936}, ! Name of Object 3
  {f552ed7b-ff8c-45fe-ba8f-4d7803e7c9cd}, ! Name of Object 4
  {f8575b8b-322f-4f21-a872-672ae8b99352}; ! Name of Object 5

