
OS:Version,
  {0b901aa5-d1fc-4d93-bcce-d8ce45d402ec}, ! Handle
  0.9.3;                                  ! Version Identifier

OS:ComponentCost:LineItem,
  {e2aea47b-78b0-4c4d-90b5-ff5464c809b6}, ! Handle
  AEDG SHC Nonres 8A Attic Floor,         ! Name
  ,                                       ! Type
  Construction,                           ! Line Item Type
  AEDG SHC Nonres 8A Attic Floor,         ! Item Name
  ,                                       ! Object End Use Key
  ,                                       ! Quantity {dimensionless}
  0,                                      ! Material Cost {$}
  CostPerArea;                            ! Material Cost Units

OS:Material,
  {6d199b12-4603-43fb-800f-c419e2b64caf}, ! Handle
  1/2IN Gypsum Top,                       ! Name
  Smooth,                                 ! Roughness
  0.01271,                                ! Thickness {m}
  0.16,                                   ! Conductivity {W/m-K}
  784.9,                                  ! Density {kg/m3}
  830,                                    ! Specific Heat {J/kg-K}
  0.9,                                    ! Thermal Absorptance
  0.92,                                   ! Solar Absorptance
  0.92;                                   ! Visible Absorptance

OS:Material,
  {185a9e05-9118-45e9-9baf-a7fda1563429}, ! Handle
  1/2IN Gypsum Bottom,                    ! Name
  Smooth,                                 ! Roughness
  0.01271,                                ! Thickness {m}
  0.16,                                   ! Conductivity {W/m-K}
  784.9,                                  ! Density {kg/m3}
  830,                                    ! Specific Heat {J/kg-K}
  0.9,                                    ! Thermal Absorptance
  0.92,                                   ! Solar Absorptance
  0.92;                                   ! Visible Absorptance

OS:Construction,
  {d278522a-35fd-4ace-affd-6f31bfbf3f69}, ! Handle
  AEDG SHC Nonres 8A Attic Floor,         ! Name
  ,                                       ! Surface Rendering Name
  {6d199b12-4603-43fb-800f-c419e2b64caf}, ! Layer 1
  {6bd6fa6a-7bc6-4b51-9ec4-4068f82f3150}, ! Layer 2
  {185a9e05-9118-45e9-9baf-a7fda1563429}; ! Layer 3

OS:Material,
  {6bd6fa6a-7bc6-4b51-9ec4-4068f82f3150}, ! Handle
  AtticFloor Insulation [10],             ! Name
  MediumRough,                            ! Roughness
  0.35812,                                ! Thickness {m}
  0.049,                                  ! Conductivity {W/m-K}
  265,                                    ! Density {kg/m3}
  836.8,                                  ! Specific Heat {J/kg-K}
  0.9,                                    ! Thermal Absorptance
  0.7,                                    ! Solar Absorptance
  0.7;                                    ! Visible Absorptance

