
OS:Version,
  {a16d4489-ee0f-4d63-aec4-fe5b55813d83}, ! Handle
  0.9.3;                                  ! Version Identifier

OS:Construction,
  {3b9a5123-ef83-4c2a-9b55-cb02ff2a057e}, ! Handle
  189.1-2009 Res 1A Window Metal framing curtainwall-storefront, ! Name
  ,                                       ! Surface Rendering Name
  {1b915b38-b679-489b-9636-2abe13f8b45d}; ! Layer 1

OS:WindowMaterial:Glazing,
  {1b915b38-b679-489b-9636-2abe13f8b45d}, ! Handle
  Theoretical Glass [167],                ! Name
  SpectralAverage,                        ! Optical Data Type
  ,                                       ! Window Glass Spectral Data Set Name
  0.003,                                  ! Thickness {m}
  0.237362,                               ! Solar Transmittance at Normal Incidence
  0.712638,                               ! Front Side Solar Reflectance at Normal Incidence
  0.712638,                               ! Back Side Solar Reflectance at Normal Incidence
  0.251212,                               ! Visible Transmittance at Normal Incidence
  0.698788,                               ! Front Side Visible Reflectance at Normal Incidence
  0.698788,                               ! Back Side Visible Reflectance at Normal Incidence
  0,                                      ! Infrared Transmittance at Normal Incidence
  0.985,                                  ! Front Side Infrared Hemispherical Emissivity
  0.985,                                  ! Back Side Infrared Hemispherical Emissivity
  2.10728;                                ! Conductivity {W/m-K}

OS:ComponentCost:LineItem,
  {fbc7dadb-6efa-4995-8362-fdddbbcd281c}, ! Handle
  189.1-2009 Res 1A Window Metal framing curtainwall-storefront, ! Name
  ,                                       ! Type
  Construction,                           ! Line Item Type
  189.1-2009 Res 1A Window Metal framing curtainwall-storefront, ! Item Name
  ,                                       ! Object End Use Key
  ,                                       ! Quantity {dimensionless}
  534.616,                                ! Material Cost {$}
  CostPerArea;                            ! Material Cost Units

