
OS:Version,
  {6174007c-9372-49aa-b26e-affd5802ff5f}, ! Handle
  0.9.3;                                  ! Version Identifier

OS:Material,
  {9cd96f37-56ac-4cf2-b937-fecf8b847a3e}, ! Handle
  Wall Insulation [2],                    ! Name
  MediumRough,                            ! Roughness
  0.0746874,                              ! Thickness {m}
  0.045,                                  ! Conductivity {W/m-K}
  265,                                    ! Density {kg/m3}
  836.8,                                  ! Specific Heat {J/kg-K}
  0.9,                                    ! Thermal Absorptance
  0.7,                                    ! Solar Absorptance
  0.7;                                    ! Visible Absorptance

OS:Material,
  {ff570d04-cb74-4bdf-af1c-2d623a7677fe}, ! Handle
  1/2IN Gypsum,                           ! Name
  Smooth,                                 ! Roughness
  0.01271,                                ! Thickness {m}
  0.16,                                   ! Conductivity {W/m-K}
  784.9,                                  ! Density {kg/m3}
  830,                                    ! Specific Heat {J/kg-K}
  0.9,                                    ! Thermal Absorptance
  0.92,                                   ! Solar Absorptance
  0.92;                                   ! Visible Absorptance

OS:Material,
  {fd15374c-943b-496e-87a8-b8ddc5cf855f}, ! Handle
  Wood Siding,                            ! Name
  MediumSmooth,                           ! Roughness
  0.01,                                   ! Thickness {m}
  0.11,                                   ! Conductivity {W/m-K}
  544.62,                                 ! Density {kg/m3}
  1210,                                   ! Specific Heat {J/kg-K}
  0.9,                                    ! Thermal Absorptance
  0.78,                                   ! Solar Absorptance
  0.78;                                   ! Visible Absorptance

OS:ComponentCost:LineItem,
  {5d89b09a-d1f2-48d6-9fdc-5958f8e8303b}, ! Handle
  90.1-2001 Res B6 Ext Wall Wood-Framed and Other, ! Name
  ,                                       ! Type
  Construction,                           ! Line Item Type
  90.1-2001 Res B6 Ext Wall Wood-Framed and Other, ! Item Name
  ,                                       ! Object End Use Key
  ,                                       ! Quantity {dimensionless}
  73.056,                                 ! Material Cost {$}
  CostPerArea;                            ! Material Cost Units

OS:Construction,
  {85b1bdfe-8c7d-4663-ad77-51f50f889480}, ! Handle
  90.1-2001 Res B6 Ext Wall Wood-Framed and Other, ! Name
  ,                                       ! Surface Rendering Name
  {fd15374c-943b-496e-87a8-b8ddc5cf855f}, ! Layer 1
  {9cd96f37-56ac-4cf2-b937-fecf8b847a3e}, ! Layer 2
  {ff570d04-cb74-4bdf-af1c-2d623a7677fe}; ! Layer 3

