
OS:Version,
  {385423b2-b8f3-4fa6-8ce1-06b84e87a811}, ! Handle
  0.9.3;                                  ! Version Identifier

OS:Construction,
  {2480a9af-288f-41aa-93dd-8f7042439072}, ! Handle
  90.1-2001 Res B6 Ext Wall Wood-Framed and Other, ! Name
  ,                                       ! Surface Rendering Name
  {332d53f6-70d2-4e35-9152-4a2b481bc901}, ! Layer 1
  {98a15197-7676-4d0c-8cbe-d3e122c8b146}, ! Layer 2
  {c3199ee2-d51c-42ab-be31-07f1eaf4f991}; ! Layer 3

OS:Material,
  {332d53f6-70d2-4e35-9152-4a2b481bc901}, ! Handle
  Wood Siding,                            ! Name
  MediumSmooth,                           ! Roughness
  0.01,                                   ! Thickness {m}
  0.11,                                   ! Conductivity {W/m-K}
  544.62,                                 ! Density {kg/m3}
  1210,                                   ! Specific Heat {J/kg-K}
  0.9,                                    ! Thermal Absorptance
  0.78,                                   ! Solar Absorptance
  0.78;                                   ! Visible Absorptance

OS:Material,
  {98a15197-7676-4d0c-8cbe-d3e122c8b146}, ! Handle
  Wall Insulation [2],                    ! Name
  MediumRough,                            ! Roughness
  0.0746874,                              ! Thickness {m}
  0.045,                                  ! Conductivity {W/m-K}
  265,                                    ! Density {kg/m3}
  836.8,                                  ! Specific Heat {J/kg-K}
  0.9,                                    ! Thermal Absorptance
  0.7,                                    ! Solar Absorptance
  0.7;                                    ! Visible Absorptance

OS:Material,
  {c3199ee2-d51c-42ab-be31-07f1eaf4f991}, ! Handle
  1/2IN Gypsum,                           ! Name
  Smooth,                                 ! Roughness
  0.01271,                                ! Thickness {m}
  0.16,                                   ! Conductivity {W/m-K}
  784.9,                                  ! Density {kg/m3}
  830,                                    ! Specific Heat {J/kg-K}
  0.9,                                    ! Thermal Absorptance
  0.92,                                   ! Solar Absorptance
  0.92;                                   ! Visible Absorptance

OS:ComponentCost:LineItem,
  {e5146d69-cabd-4bae-9f63-81f31cccf9ea}, ! Handle
  90.1-2001 Res B6 Ext Wall Wood-Framed and Other, ! Name
  ,                                       ! Type
  Construction,                           ! Line Item Type
  90.1-2001 Res B6 Ext Wall Wood-Framed and Other, ! Item Name
  ,                                       ! Object End Use Key
  ,                                       ! Quantity {dimensionless}
  73.056,                                 ! Material Cost {$}
  CostPerArea;                            ! Material Cost Units

OS:ComponentData,
  {ba46b27c-acb8-4735-bd91-65084ded47eb}, ! Handle
  Component Data 1,                       ! Name
  {221fc1e6-858c-4cf4-8f0d-dcf88bdf2d38}, ! UUID
  {bfbbfd27-c368-47f6-b125-2193c0a9aff4}, ! Version UUID
  1363981477,                             ! Creation Timestamp
  1363981477,                             ! Version Timestamp
  {2480a9af-288f-41aa-93dd-8f7042439072}, ! Name of Object 1
  {332d53f6-70d2-4e35-9152-4a2b481bc901}, ! Name of Object 2
  {98a15197-7676-4d0c-8cbe-d3e122c8b146}, ! Name of Object 3
  {c3199ee2-d51c-42ab-be31-07f1eaf4f991}, ! Name of Object 4
  {e5146d69-cabd-4bae-9f63-81f31cccf9ea}; ! Name of Object 5

