
OS:Version,
  {0c89b4cf-a816-4118-9979-8e79befdec35}, ! Handle
  0.9.3;                                  ! Version Identifier

OS:Construction,
  {080f196f-8bc2-4d6e-a7e5-6314ba0b8291}, ! Handle
  90.1-2007 Res 8A Roof Metal Building,   ! Name
  ,                                       ! Surface Rendering Name
  {049b8055-8c78-4d27-9428-55a8e64d048b}, ! Layer 1
  {0ff906bb-0690-452a-9a8f-289de792041a}; ! Layer 2

OS:Material,
  {049b8055-8c78-4d27-9428-55a8e64d048b}, ! Handle
  Metal Roofing,                          ! Name
  MediumSmooth,                           ! Roughness
  0.001524,                               ! Thickness {m}
  45.006,                                 ! Conductivity {W/m-K}
  7680,                                   ! Density {kg/m3}
  418.4,                                  ! Specific Heat {J/kg-K}
  0.9,                                    ! Thermal Absorptance
  0.7,                                    ! Solar Absorptance
  0.3;                                    ! Visible Absorptance

OS:Material,
  {0ff906bb-0690-452a-9a8f-289de792041a}, ! Handle
  Roof Insulation [16],                   ! Name
  MediumRough,                            ! Roughness
  0.167035,                               ! Thickness {m}
  0.049,                                  ! Conductivity {W/m-K}
  265,                                    ! Density {kg/m3}
  836.8,                                  ! Specific Heat {J/kg-K}
  0.9,                                    ! Thermal Absorptance
  0.7,                                    ! Solar Absorptance
  0.7;                                    ! Visible Absorptance

OS:ComponentCost:LineItem,
  {4b746c25-22bf-4b88-bddb-c1818143da84}, ! Handle
  90.1-2007 Res 8A Roof Metal Building,   ! Name
  ,                                       ! Type
  Construction,                           ! Line Item Type
  90.1-2007 Res 8A Roof Metal Building,   ! Item Name
  ,                                       ! Object End Use Key
  ,                                       ! Quantity {dimensionless}
  42.202,                                 ! Material Cost {$}
  CostPerArea;                            ! Material Cost Units

OS:ComponentData,
  {1402c864-50e9-4b13-90ac-cfc0442354cb}, ! Handle
  Component Data 1,                       ! Name
  {cc373ee0-bcaa-4d8a-bea4-462ef23f85ab}, ! UUID
  {8c595eb2-79d9-43b1-8ba0-b09c01743a4f}, ! Version UUID
  1363981875,                             ! Creation Timestamp
  1363981875,                             ! Version Timestamp
  {080f196f-8bc2-4d6e-a7e5-6314ba0b8291}, ! Name of Object 1
  {049b8055-8c78-4d27-9428-55a8e64d048b}, ! Name of Object 2
  {0ff906bb-0690-452a-9a8f-289de792041a}, ! Name of Object 3
  {4b746c25-22bf-4b88-bddb-c1818143da84}; ! Name of Object 4

