
OS:Version,
  {f5c5171f-98f0-4e22-b2c6-4533c7bbf35b}, ! Handle
  0.9.3;                                  ! Version Identifier

OS:Material,
  {85517890-76d2-43dc-865f-d7d0e9dcc481}, ! Handle
  1/2IN Gypsum,                           ! Name
  Smooth,                                 ! Roughness
  0.01271,                                ! Thickness {m}
  0.16,                                   ! Conductivity {W/m-K}
  784.9,                                  ! Density {kg/m3}
  830,                                    ! Specific Heat {J/kg-K}
  0.9,                                    ! Thermal Absorptance
  0.92,                                   ! Solar Absorptance
  0.92;                                   ! Visible Absorptance

OS:Material,
  {71de577f-cd56-45fb-9ee6-3e1bbef4460d}, ! Handle
  Wall Insulation [2],                    ! Name
  MediumRough,                            ! Roughness
  0.0746874,                              ! Thickness {m}
  0.045,                                  ! Conductivity {W/m-K}
  265,                                    ! Density {kg/m3}
  836.8,                                  ! Specific Heat {J/kg-K}
  0.9,                                    ! Thermal Absorptance
  0.7,                                    ! Solar Absorptance
  0.7;                                    ! Visible Absorptance

OS:ComponentCost:LineItem,
  {a5d0d04e-51e5-42ef-8e0c-3ae3172ee583}, ! Handle
  90.1-2001 Nonres B12 Ext Wall Wood-Framed and Other, ! Name
  ,                                       ! Type
  Construction,                           ! Line Item Type
  90.1-2001 Nonres B12 Ext Wall Wood-Framed and Other, ! Item Name
  ,                                       ! Object End Use Key
  ,                                       ! Quantity {dimensionless}
  73.056,                                 ! Material Cost {$}
  CostPerArea;                            ! Material Cost Units

OS:Material,
  {f0c3868e-67a8-4b96-ad13-43ed4a9841b9}, ! Handle
  Wood Siding,                            ! Name
  MediumSmooth,                           ! Roughness
  0.01,                                   ! Thickness {m}
  0.11,                                   ! Conductivity {W/m-K}
  544.62,                                 ! Density {kg/m3}
  1210,                                   ! Specific Heat {J/kg-K}
  0.9,                                    ! Thermal Absorptance
  0.78,                                   ! Solar Absorptance
  0.78;                                   ! Visible Absorptance

OS:Construction,
  {909a4b76-190b-48ac-8eae-dbe37ba7cb52}, ! Handle
  90.1-2001 Nonres B12 Ext Wall Wood-Framed and Other, ! Name
  ,                                       ! Surface Rendering Name
  {f0c3868e-67a8-4b96-ad13-43ed4a9841b9}, ! Layer 1
  {71de577f-cd56-45fb-9ee6-3e1bbef4460d}, ! Layer 2
  {85517890-76d2-43dc-865f-d7d0e9dcc481}; ! Layer 3

