
OS:Version,
  {46660fab-b13c-4a8c-86ef-ae1078fe5b33}, ! Handle
  0.9.3;                                  ! Version Identifier

OS:Construction,
  {de4ebcb2-18d2-42f3-95bb-14ab50d751b7}, ! Handle
  90.1-1999 Nonres B19 Int Wall,          ! Name
  ,                                       ! Surface Rendering Name
  {e40aa82f-5fc4-4347-91c1-4788b7753589}, ! Layer 1
  {e40aa82f-5fc4-4347-91c1-4788b7753589}; ! Layer 2

OS:Material,
  {e40aa82f-5fc4-4347-91c1-4788b7753589}, ! Handle
  GP01 1/2 GYPSUM,                        ! Name
  Smooth,                                 ! Roughness
  0.01271,                                ! Thickness {m}
  0.16,                                   ! Conductivity {W/m-K}
  800,                                    ! Density {kg/m3}
  1090,                                   ! Specific Heat {J/kg-K}
  0.9,                                    ! Thermal Absorptance
  0.7,                                    ! Solar Absorptance
  0.5;                                    ! Visible Absorptance

OS:ComponentCost:LineItem,
  {cca706d7-fe74-4c91-b634-be32543804e3}, ! Handle
  90.1-1999 Nonres B19 Int Wall,          ! Name
  ,                                       ! Type
  Construction,                           ! Line Item Type
  90.1-1999 Nonres B19 Int Wall,          ! Item Name
  ,                                       ! Object End Use Key
  ,                                       ! Quantity {dimensionless}
  0,                                      ! Material Cost {$}
  CostPerArea;                            ! Material Cost Units

OS:ComponentData,
  {2fdd912d-3b32-4f3c-9159-22cd48631d3d}, ! Handle
  Component Data 1,                       ! Name
  {a625d518-2fa1-4c07-b125-579bafc8a863}, ! UUID
  {bb81a1f4-b088-4463-82fd-8b860562f634}, ! Version UUID
  1363981122,                             ! Creation Timestamp
  1363981122,                             ! Version Timestamp
  {de4ebcb2-18d2-42f3-95bb-14ab50d751b7}, ! Name of Object 1
  {e40aa82f-5fc4-4347-91c1-4788b7753589}, ! Name of Object 2
  {cca706d7-fe74-4c91-b634-be32543804e3}; ! Name of Object 3

