
OS:Version,
  {ea9854e2-92c0-4d04-9626-6c8dea1c6306}, ! Handle
  0.9.3;                                  ! Version Identifier

OS:Material,
  {6cad7ffb-28de-4ef1-81fc-900e239e8857}, ! Handle
  Roof Insulation [32],                   ! Name
  MediumRough,                            ! Roughness
  0.257057,                               ! Thickness {m}
  0.049,                                  ! Conductivity {W/m-K}
  265,                                    ! Density {kg/m3}
  836.8,                                  ! Specific Heat {J/kg-K}
  0.9,                                    ! Thermal Absorptance
  0.7,                                    ! Solar Absorptance
  0.7;                                    ! Visible Absorptance

OS:ComponentCost:LineItem,
  {1c157291-d7f1-4b64-bedd-298e363d487e}, ! Handle
  AEDG SHC Nonres 5B Roof IEAD,           ! Name
  ,                                       ! Type
  Construction,                           ! Line Item Type
  AEDG SHC Nonres 5B Roof IEAD,           ! Item Name
  ,                                       ! Object End Use Key
  ,                                       ! Quantity {dimensionless}
  0,                                      ! Material Cost {$}
  CostPerArea;                            ! Material Cost Units

OS:Material,
  {c8032e4e-8813-454d-b0f2-118fa978bc3e}, ! Handle
  Metal Decking,                          ! Name
  MediumSmooth,                           ! Roughness
  0.001524,                               ! Thickness {m}
  45.006,                                 ! Conductivity {W/m-K}
  7680,                                   ! Density {kg/m3}
  418.4,                                  ! Specific Heat {J/kg-K}
  0.9,                                    ! Thermal Absorptance
  0.7,                                    ! Solar Absorptance
  0.3;                                    ! Visible Absorptance

OS:Construction,
  {1cf83d49-043f-4b9a-8c97-e1aba7755090}, ! Handle
  AEDG SHC Nonres 5B Roof IEAD,           ! Name
  ,                                       ! Surface Rendering Name
  {23f328bd-53e2-44c0-acdb-845a6966fdbf}, ! Layer 1
  {6cad7ffb-28de-4ef1-81fc-900e239e8857}, ! Layer 2
  {c8032e4e-8813-454d-b0f2-118fa978bc3e}; ! Layer 3

OS:Material,
  {23f328bd-53e2-44c0-acdb-845a6966fdbf}, ! Handle
  Roof Membrane,                          ! Name
  VeryRough,                              ! Roughness
  0.0095,                                 ! Thickness {m}
  0.16,                                   ! Conductivity {W/m-K}
  1121.29,                                ! Density {kg/m3}
  1460,                                   ! Specific Heat {J/kg-K}
  0.9,                                    ! Thermal Absorptance
  0.7,                                    ! Solar Absorptance
  0.7;                                    ! Visible Absorptance

