
OS:Version,
  {00f2e788-fd8f-47fb-a826-ccdf764fa5ff}, ! Handle
  0.9.3;                                  ! Version Identifier

OS:Material,
  {137ecb9b-773f-41fb-a417-75f2b6e0e5da}, ! Handle
  1/2IN Gypsum,                           ! Name
  Smooth,                                 ! Roughness
  0.01271,                                ! Thickness {m}
  0.16,                                   ! Conductivity {W/m-K}
  784.9,                                  ! Density {kg/m3}
  830,                                    ! Specific Heat {J/kg-K}
  0.9,                                    ! Thermal Absorptance
  0.92,                                   ! Solar Absorptance
  0.92;                                   ! Visible Absorptance

OS:Material,
  {b693d220-6c88-4963-b7fa-4c1a02e7388c}, ! Handle
  Metal Siding,                           ! Name
  Smooth,                                 ! Roughness
  0.0015,                                 ! Thickness {m}
  44.96,                                  ! Conductivity {W/m-K}
  7688.86,                                ! Density {kg/m3}
  410,                                    ! Specific Heat {J/kg-K}
  0.9,                                    ! Thermal Absorptance
  0.2,                                    ! Solar Absorptance
  0.2;                                    ! Visible Absorptance

OS:Construction,
  {6467572a-0399-4fa6-b5bc-17af8acb3680}, ! Handle
  90.1-2001 Res B21 Ext Wall Metal Building, ! Name
  ,                                       ! Surface Rendering Name
  {b693d220-6c88-4963-b7fa-4c1a02e7388c}, ! Layer 1
  {f149b609-40f4-439a-8bc8-e1be30fa5d8b}, ! Layer 2
  {137ecb9b-773f-41fb-a417-75f2b6e0e5da}; ! Layer 3

OS:Material,
  {f149b609-40f4-439a-8bc8-e1be30fa5d8b}, ! Handle
  Wall Insulation [9],                    ! Name
  MediumRough,                            ! Roughness
  0.128642,                               ! Thickness {m}
  0.045,                                  ! Conductivity {W/m-K}
  265,                                    ! Density {kg/m3}
  836.8,                                  ! Specific Heat {J/kg-K}
  0.9,                                    ! Thermal Absorptance
  0.7,                                    ! Solar Absorptance
  0.7;                                    ! Visible Absorptance

OS:ComponentCost:LineItem,
  {0b52150e-01f0-4118-b9df-2dab9b7b3508}, ! Handle
  90.1-2001 Res B21 Ext Wall Metal Building, ! Name
  ,                                       ! Type
  Construction,                           ! Line Item Type
  90.1-2001 Res B21 Ext Wall Metal Building, ! Item Name
  ,                                       ! Object End Use Key
  ,                                       ! Quantity {dimensionless}
  107.698,                                ! Material Cost {$}
  CostPerArea;                            ! Material Cost Units

