
OS:Version,
  {d9aeef66-9e8f-406e-b766-7a44f26e8987}, ! Handle
  0.9.3;                                  ! Version Identifier

OS:ComponentCost:LineItem,
  {987674e2-bcbb-4924-853f-f5e6e04275c7}, ! Handle
  90.1-1999 Nonres B18 Window Fixed,      ! Name
  ,                                       ! Type
  Construction,                           ! Line Item Type
  90.1-1999 Nonres B18 Window Fixed,      ! Item Name
  ,                                       ! Object End Use Key
  ,                                       ! Quantity {dimensionless}
  444.232,                                ! Material Cost {$}
  CostPerArea;                            ! Material Cost Units

OS:Construction,
  {01f72a18-e9c8-4dc9-a861-11a7f059fa7f}, ! Handle
  90.1-1999 Nonres B18 Window Fixed,      ! Name
  ,                                       ! Surface Rendering Name
  {d70d3708-9ddb-4d2a-bd5e-bc12aec90b2c}; ! Layer 1

OS:WindowMaterial:Glazing,
  {d70d3708-9ddb-4d2a-bd5e-bc12aec90b2c}, ! Handle
  Theoretical Glass [37],                 ! Name
  SpectralAverage,                        ! Optical Data Type
  ,                                       ! Window Glass Spectral Data Set Name
  0.003,                                  ! Thickness {m}
  0.48413,                                ! Solar Transmittance at Normal Incidence
  0.46587,                                ! Front Side Solar Reflectance at Normal Incidence
  0.46587,                                ! Back Side Solar Reflectance at Normal Incidence
  0.529698,                               ! Visible Transmittance at Normal Incidence
  0.420302,                               ! Front Side Visible Reflectance at Normal Incidence
  0.420302,                               ! Back Side Visible Reflectance at Normal Incidence
  0,                                      ! Infrared Transmittance at Normal Incidence
  0.9,                                    ! Front Side Infrared Hemispherical Emissivity
  0.9,                                    ! Back Side Infrared Hemispherical Emissivity
  0.0134755;                              ! Conductivity {W/m-K}

