
OS:Version,
  {1ffb622d-1edf-4975-b5bc-f95fb2aa1ab4}, ! Handle
  0.9.3;                                  ! Version Identifier

OS:Construction,
  {ddf3cb41-3492-45d2-ab46-340a68ef3bc1}, ! Handle
  189.1-2009 Res 8A Roof IEAD,            ! Name
  ,                                       ! Surface Rendering Name
  {7af72cee-1226-418e-a809-7032516fec25}, ! Layer 1
  {5626d32f-9d12-41cf-ae98-c02d844c1b49}, ! Layer 2
  {4ebbb1da-554f-4ae3-ba87-e93b696568a5}; ! Layer 3

OS:Material,
  {7af72cee-1226-418e-a809-7032516fec25}, ! Handle
  Roof Membrane,                          ! Name
  VeryRough,                              ! Roughness
  0.0095,                                 ! Thickness {m}
  0.16,                                   ! Conductivity {W/m-K}
  1121.29,                                ! Density {kg/m3}
  1460,                                   ! Specific Heat {J/kg-K}
  0.9,                                    ! Thermal Absorptance
  0.7,                                    ! Solar Absorptance
  0.7;                                    ! Visible Absorptance

OS:Material,
  {5626d32f-9d12-41cf-ae98-c02d844c1b49}, ! Handle
  Roof Insulation [26],                   ! Name
  MediumRough,                            ! Roughness
  0.294086,                               ! Thickness {m}
  0.049,                                  ! Conductivity {W/m-K}
  265,                                    ! Density {kg/m3}
  836.8,                                  ! Specific Heat {J/kg-K}
  0.9,                                    ! Thermal Absorptance
  0.7,                                    ! Solar Absorptance
  0.7;                                    ! Visible Absorptance

OS:Material,
  {4ebbb1da-554f-4ae3-ba87-e93b696568a5}, ! Handle
  Metal Decking,                          ! Name
  MediumSmooth,                           ! Roughness
  0.001524,                               ! Thickness {m}
  45.006,                                 ! Conductivity {W/m-K}
  7680,                                   ! Density {kg/m3}
  418.4,                                  ! Specific Heat {J/kg-K}
  0.9,                                    ! Thermal Absorptance
  0.7,                                    ! Solar Absorptance
  0.3;                                    ! Visible Absorptance

OS:ComponentCost:LineItem,
  {55512d14-02da-40f0-9390-1e0b5eccc213}, ! Handle
  189.1-2009 Res 8A Roof IEAD,            ! Name
  ,                                       ! Type
  Construction,                           ! Line Item Type
  189.1-2009 Res 8A Roof IEAD,            ! Item Name
  ,                                       ! Object End Use Key
  ,                                       ! Quantity {dimensionless}
  64.441,                                 ! Material Cost {$}
  CostPerArea;                            ! Material Cost Units

OS:ComponentData,
  {9100aecf-5b95-4688-83c8-af22f196d70c}, ! Handle
  Component Data 1,                       ! Name
  {cabdaf5a-2b4d-4ba5-b594-9cb8259ed891}, ! UUID
  {6aa44c0f-d1a0-490c-9514-32edafc2e450}, ! Version UUID
  1363980987,                             ! Creation Timestamp
  1363980987,                             ! Version Timestamp
  {ddf3cb41-3492-45d2-ab46-340a68ef3bc1}, ! Name of Object 1
  {7af72cee-1226-418e-a809-7032516fec25}, ! Name of Object 2
  {5626d32f-9d12-41cf-ae98-c02d844c1b49}, ! Name of Object 3
  {4ebbb1da-554f-4ae3-ba87-e93b696568a5}, ! Name of Object 4
  {55512d14-02da-40f0-9390-1e0b5eccc213}; ! Name of Object 5

