
OS:Version,
  {26c233f1-0edf-4d82-b8f6-a11af2873978}, ! Handle
  0.9.3;                                  ! Version Identifier

OS:Material,
  {71623606-c50b-4fec-a750-8cc8f390a11c}, ! Handle
  Roof Insulation [26],                   ! Name
  MediumRough,                            ! Roughness
  0.294086,                               ! Thickness {m}
  0.049,                                  ! Conductivity {W/m-K}
  265,                                    ! Density {kg/m3}
  836.8,                                  ! Specific Heat {J/kg-K}
  0.9,                                    ! Thermal Absorptance
  0.7,                                    ! Solar Absorptance
  0.7;                                    ! Visible Absorptance

OS:Material,
  {13cfcd1e-9ad5-4d40-87dd-81df2219bf30}, ! Handle
  Metal Decking,                          ! Name
  MediumSmooth,                           ! Roughness
  0.001524,                               ! Thickness {m}
  45.006,                                 ! Conductivity {W/m-K}
  7680,                                   ! Density {kg/m3}
  418.4,                                  ! Specific Heat {J/kg-K}
  0.9,                                    ! Thermal Absorptance
  0.7,                                    ! Solar Absorptance
  0.3;                                    ! Visible Absorptance

OS:Construction,
  {34b0e608-a176-4113-9dc3-e9ca42a5f1cd}, ! Handle
  189.1-2009 Res 8A Roof IEAD,            ! Name
  ,                                       ! Surface Rendering Name
  {ad541bff-c3c1-499f-ae39-2b4c8c8fa956}, ! Layer 1
  {71623606-c50b-4fec-a750-8cc8f390a11c}, ! Layer 2
  {13cfcd1e-9ad5-4d40-87dd-81df2219bf30}; ! Layer 3

OS:Material,
  {ad541bff-c3c1-499f-ae39-2b4c8c8fa956}, ! Handle
  Roof Membrane,                          ! Name
  VeryRough,                              ! Roughness
  0.0095,                                 ! Thickness {m}
  0.16,                                   ! Conductivity {W/m-K}
  1121.29,                                ! Density {kg/m3}
  1460,                                   ! Specific Heat {J/kg-K}
  0.9,                                    ! Thermal Absorptance
  0.7,                                    ! Solar Absorptance
  0.7;                                    ! Visible Absorptance

OS:ComponentCost:LineItem,
  {8716112c-ca5e-4a97-87d9-85045571fbd3}, ! Handle
  189.1-2009 Res 8A Roof IEAD,            ! Name
  ,                                       ! Type
  Construction,                           ! Line Item Type
  189.1-2009 Res 8A Roof IEAD,            ! Item Name
  ,                                       ! Object End Use Key
  ,                                       ! Quantity {dimensionless}
  64.441,                                 ! Material Cost {$}
  CostPerArea;                            ! Material Cost Units

