
OS:Version,
  {3d90874f-8362-4ef5-a15c-4c82f7e7dc5f}, ! Handle
  0.9.3;                                  ! Version Identifier

OS:Material,
  {c1fc3799-5dff-4458-874f-7b73f63acc48}, ! Handle
  Wood Siding,                            ! Name
  MediumSmooth,                           ! Roughness
  0.01,                                   ! Thickness {m}
  0.11,                                   ! Conductivity {W/m-K}
  544.62,                                 ! Density {kg/m3}
  1210,                                   ! Specific Heat {J/kg-K}
  0.9,                                    ! Thermal Absorptance
  0.78,                                   ! Solar Absorptance
  0.78;                                   ! Visible Absorptance

OS:Material,
  {5c8da627-8614-4b22-9742-fa72f18f9658}, ! Handle
  Wall Insulation [159],                  ! Name
  MediumRough,                            ! Roughness
  0.0812,                                 ! Thickness {m}
  0.045,                                  ! Conductivity {W/m-K}
  265,                                    ! Density {kg/m3}
  836.8,                                  ! Specific Heat {J/kg-K}
  0.9,                                    ! Thermal Absorptance
  0.7,                                    ! Solar Absorptance
  0.7;                                    ! Visible Absorptance

OS:Material,
  {6ad6ad38-5f0d-4010-937d-683de7cdbc6f}, ! Handle
  1/2IN Gypsum,                           ! Name
  Smooth,                                 ! Roughness
  0.01271,                                ! Thickness {m}
  0.16,                                   ! Conductivity {W/m-K}
  784.9,                                  ! Density {kg/m3}
  830,                                    ! Specific Heat {J/kg-K}
  0.9,                                    ! Thermal Absorptance
  0.92,                                   ! Solar Absorptance
  0.92;                                   ! Visible Absorptance

OS:ComponentCost:LineItem,
  {665826c7-5df5-45be-99a3-e73220ceeb94}, ! Handle
  Title 24-2008 Nonres 6 Ext Wall Wood-Framed and Other, ! Name
  ,                                       ! Type
  Construction,                           ! Line Item Type
  Title 24-2008 Nonres 6 Ext Wall Wood-Framed and Other, ! Item Name
  ,                                       ! Object End Use Key
  ,                                       ! Quantity {dimensionless}
  140.526,                                ! Material Cost {$}
  CostPerArea;                            ! Material Cost Units

OS:Construction,
  {2b0bfdd2-529f-4287-91ec-7b108eb78f89}, ! Handle
  Title 24-2008 Nonres 6 Ext Wall Wood-Framed and Other, ! Name
  ,                                       ! Surface Rendering Name
  {c1fc3799-5dff-4458-874f-7b73f63acc48}, ! Layer 1
  {5c8da627-8614-4b22-9742-fa72f18f9658}, ! Layer 2
  {6ad6ad38-5f0d-4010-937d-683de7cdbc6f}; ! Layer 3

