
OS:Version,
  {76e45558-c955-4600-b07f-71528cdf1241}, ! Handle
  0.9.3;                                  ! Version Identifier

OS:Material,
  {1b70719c-921b-4f4a-89e6-4a9a15a08479}, ! Handle
  Metal Siding,                           ! Name
  Smooth,                                 ! Roughness
  0.0015,                                 ! Thickness {m}
  44.96,                                  ! Conductivity {W/m-K}
  7688.86,                                ! Density {kg/m3}
  410,                                    ! Specific Heat {J/kg-K}
  0.9,                                    ! Thermal Absorptance
  0.2,                                    ! Solar Absorptance
  0.2;                                    ! Visible Absorptance

OS:Material,
  {df010832-c7ec-4815-9426-a0e256f602ad}, ! Handle
  Wall Insulation [20],                   ! Name
  MediumRough,                            ! Roughness
  0.128688,                               ! Thickness {m}
  0.045,                                  ! Conductivity {W/m-K}
  265,                                    ! Density {kg/m3}
  836.8,                                  ! Specific Heat {J/kg-K}
  0.9,                                    ! Thermal Absorptance
  0.7,                                    ! Solar Absorptance
  0.7;                                    ! Visible Absorptance

OS:ComponentCost:LineItem,
  {9b1e4483-7c5a-4e55-b6f6-119f2a586360}, ! Handle
  90.1-2007 Res 5B Ext Wall Metal Building, ! Name
  ,                                       ! Type
  Construction,                           ! Line Item Type
  90.1-2007 Res 5B Ext Wall Metal Building, ! Item Name
  ,                                       ! Object End Use Key
  ,                                       ! Quantity {dimensionless}
  107.702,                                ! Material Cost {$}
  CostPerArea;                            ! Material Cost Units

OS:Construction,
  {08e9461d-03b2-4ccb-951c-4db634d00265}, ! Handle
  90.1-2007 Res 5B Ext Wall Metal Building, ! Name
  ,                                       ! Surface Rendering Name
  {1b70719c-921b-4f4a-89e6-4a9a15a08479}, ! Layer 1
  {df010832-c7ec-4815-9426-a0e256f602ad}, ! Layer 2
  {8d1330b4-896d-460e-a0e0-e8c00cb16ee8}; ! Layer 3

OS:Material,
  {8d1330b4-896d-460e-a0e0-e8c00cb16ee8}, ! Handle
  1/2IN Gypsum,                           ! Name
  Smooth,                                 ! Roughness
  0.01271,                                ! Thickness {m}
  0.16,                                   ! Conductivity {W/m-K}
  784.9,                                  ! Density {kg/m3}
  830,                                    ! Specific Heat {J/kg-K}
  0.9,                                    ! Thermal Absorptance
  0.92,                                   ! Solar Absorptance
  0.92;                                   ! Visible Absorptance

