
OS:Version,
  {b1af842a-f5d3-4a57-9903-16c3a81e75b7}, ! Handle
  0.9.3;                                  ! Version Identifier

OS:Material,
  {aca10c76-7e58-4b89-a5f0-49ba55156fbf}, ! Handle
  1IN Stucco,                             ! Name
  Smooth,                                 ! Roughness
  0.0253,                                 ! Thickness {m}
  0.6918,                                 ! Conductivity {W/m-K}
  1858,                                   ! Density {kg/m3}
  837,                                    ! Specific Heat {J/kg-K}
  0.9,                                    ! Thermal Absorptance
  0.92,                                   ! Solar Absorptance
  0.92;                                   ! Visible Absorptance

OS:Material,
  {847b75bd-2983-436c-ac60-4b70b363a636}, ! Handle
  8IN Concrete HW,                        ! Name
  MediumRough,                            ! Roughness
  0.2033,                                 ! Thickness {m}
  1.7296,                                 ! Conductivity {W/m-K}
  2243,                                   ! Density {kg/m3}
  837,                                    ! Specific Heat {J/kg-K}
  0.9,                                    ! Thermal Absorptance
  0.65,                                   ! Solar Absorptance
  0.65;                                   ! Visible Absorptance

OS:Construction,
  {542a4f64-ee36-44bb-bd43-5b0e4463aae5}, ! Handle
  AEDG SHC Nonres 4B Ext Wall Mass,       ! Name
  ,                                       ! Surface Rendering Name
  {aca10c76-7e58-4b89-a5f0-49ba55156fbf}, ! Layer 1
  {847b75bd-2983-436c-ac60-4b70b363a636}, ! Layer 2
  {bcc2a132-a67b-496c-b916-df1ef3d6e63a}, ! Layer 3
  {816bfe2d-2727-4cb9-872c-8c38d36a92d5}; ! Layer 4

OS:Material,
  {bcc2a132-a67b-496c-b916-df1ef3d6e63a}, ! Handle
  Wall Insulation [61],                   ! Name
  MediumRough,                            ! Roughness
  0.0785352,                              ! Thickness {m}
  0.0432,                                 ! Conductivity {W/m-K}
  91,                                     ! Density {kg/m3}
  837,                                    ! Specific Heat {J/kg-K}
  0.9,                                    ! Thermal Absorptance
  0.5,                                    ! Solar Absorptance
  0.5;                                    ! Visible Absorptance

OS:Material,
  {816bfe2d-2727-4cb9-872c-8c38d36a92d5}, ! Handle
  1/2IN Gypsum,                           ! Name
  Smooth,                                 ! Roughness
  0.01271,                                ! Thickness {m}
  0.16,                                   ! Conductivity {W/m-K}
  784.9,                                  ! Density {kg/m3}
  830,                                    ! Specific Heat {J/kg-K}
  0.9,                                    ! Thermal Absorptance
  0.92,                                   ! Solar Absorptance
  0.92;                                   ! Visible Absorptance

OS:ComponentCost:LineItem,
  {d876e1a5-2971-4904-abd4-245dd4e49d99}, ! Handle
  AEDG SHC Nonres 4B Ext Wall Mass,       ! Name
  ,                                       ! Type
  Construction,                           ! Line Item Type
  AEDG SHC Nonres 4B Ext Wall Mass,       ! Item Name
  ,                                       ! Object End Use Key
  ,                                       ! Quantity {dimensionless}
  0,                                      ! Material Cost {$}
  CostPerArea;                            ! Material Cost Units

