
OS:Version,
  {d0a32ec4-8734-4ecf-b12c-143cab5834a5}, ! Handle
  0.9.3;                                  ! Version Identifier

OS:Construction,
  {1c6d11fe-b62f-49c4-b424-a385bd8bc696}, ! Handle
  AEDG SHC Nonres 4B Ext Wall Mass,       ! Name
  ,                                       ! Surface Rendering Name
  {0ea9dcb4-fa3e-4a84-aaef-ffab62992a9b}, ! Layer 1
  {b642e63e-2515-46c8-a61f-a5463cba33b5}, ! Layer 2
  {dfd72e33-bc82-4bf2-b880-f02e6e8e294a}, ! Layer 3
  {03b9a047-48b3-45e0-a155-eb3337abd745}; ! Layer 4

OS:Material,
  {0ea9dcb4-fa3e-4a84-aaef-ffab62992a9b}, ! Handle
  1IN Stucco,                             ! Name
  Smooth,                                 ! Roughness
  0.0253,                                 ! Thickness {m}
  0.6918,                                 ! Conductivity {W/m-K}
  1858,                                   ! Density {kg/m3}
  837,                                    ! Specific Heat {J/kg-K}
  0.9,                                    ! Thermal Absorptance
  0.92,                                   ! Solar Absorptance
  0.92;                                   ! Visible Absorptance

OS:Material,
  {b642e63e-2515-46c8-a61f-a5463cba33b5}, ! Handle
  8IN Concrete HW,                        ! Name
  MediumRough,                            ! Roughness
  0.2033,                                 ! Thickness {m}
  1.7296,                                 ! Conductivity {W/m-K}
  2243,                                   ! Density {kg/m3}
  837,                                    ! Specific Heat {J/kg-K}
  0.9,                                    ! Thermal Absorptance
  0.65,                                   ! Solar Absorptance
  0.65;                                   ! Visible Absorptance

OS:Material,
  {dfd72e33-bc82-4bf2-b880-f02e6e8e294a}, ! Handle
  Wall Insulation [61],                   ! Name
  MediumRough,                            ! Roughness
  0.0785352,                              ! Thickness {m}
  0.0432,                                 ! Conductivity {W/m-K}
  91,                                     ! Density {kg/m3}
  837,                                    ! Specific Heat {J/kg-K}
  0.9,                                    ! Thermal Absorptance
  0.5,                                    ! Solar Absorptance
  0.5;                                    ! Visible Absorptance

OS:Material,
  {03b9a047-48b3-45e0-a155-eb3337abd745}, ! Handle
  1/2IN Gypsum,                           ! Name
  Smooth,                                 ! Roughness
  0.01271,                                ! Thickness {m}
  0.16,                                   ! Conductivity {W/m-K}
  784.9,                                  ! Density {kg/m3}
  830,                                    ! Specific Heat {J/kg-K}
  0.9,                                    ! Thermal Absorptance
  0.92,                                   ! Solar Absorptance
  0.92;                                   ! Visible Absorptance

OS:ComponentCost:LineItem,
  {723fad82-3fcd-4806-984d-9c98d08d2b8b}, ! Handle
  AEDG SHC Nonres 4B Ext Wall Mass,       ! Name
  ,                                       ! Type
  Construction,                           ! Line Item Type
  AEDG SHC Nonres 4B Ext Wall Mass,       ! Item Name
  ,                                       ! Object End Use Key
  ,                                       ! Quantity {dimensionless}
  0,                                      ! Material Cost {$}
  CostPerArea;                            ! Material Cost Units

OS:ComponentData,
  {3934176a-bf01-4ac8-82ce-edbdba98a1e4}, ! Handle
  Component Data 1,                       ! Name
  {1da735d9-1e30-4990-ba90-1c61447f2720}, ! UUID
  {8275a08b-1d5e-41cd-a874-9c00dd5309ec}, ! Version UUID
  1363981921,                             ! Creation Timestamp
  1363981921,                             ! Version Timestamp
  {1c6d11fe-b62f-49c4-b424-a385bd8bc696}, ! Name of Object 1
  {0ea9dcb4-fa3e-4a84-aaef-ffab62992a9b}, ! Name of Object 2
  {b642e63e-2515-46c8-a61f-a5463cba33b5}, ! Name of Object 3
  {dfd72e33-bc82-4bf2-b880-f02e6e8e294a}, ! Name of Object 4
  {03b9a047-48b3-45e0-a155-eb3337abd745}, ! Name of Object 5
  {723fad82-3fcd-4806-984d-9c98d08d2b8b}; ! Name of Object 6

