
OS:Version,
  {a0ebcb39-354a-4582-83eb-c7f7948b6b5b}, ! Handle
  0.9.3;                                  ! Version Identifier

OS:Construction,
  {203c905d-ab46-4e98-bd9c-4af5c9986807}, ! Handle
  90.1-2001 Nonres B10 Ext Wall Mass,     ! Name
  ,                                       ! Surface Rendering Name
  {1a7355fe-5e35-48ca-9053-8005f70c5d03}, ! Layer 1
  {ed082122-c65a-4c51-b352-6caa67d10fd7}, ! Layer 2
  {cac93cb5-ae2c-4a79-ac1e-d3cbfa37188f}, ! Layer 3
  {de794c93-adb3-4423-969a-d2b1b21f2305}; ! Layer 4

OS:Material,
  {1a7355fe-5e35-48ca-9053-8005f70c5d03}, ! Handle
  1IN Stucco,                             ! Name
  Smooth,                                 ! Roughness
  0.0253,                                 ! Thickness {m}
  0.6918,                                 ! Conductivity {W/m-K}
  1858,                                   ! Density {kg/m3}
  837,                                    ! Specific Heat {J/kg-K}
  0.9,                                    ! Thermal Absorptance
  0.92,                                   ! Solar Absorptance
  0.92;                                   ! Visible Absorptance

OS:Material,
  {ed082122-c65a-4c51-b352-6caa67d10fd7}, ! Handle
  8IN Concrete HW,                        ! Name
  MediumRough,                            ! Roughness
  0.2033,                                 ! Thickness {m}
  1.7296,                                 ! Conductivity {W/m-K}
  2243,                                   ! Density {kg/m3}
  837,                                    ! Specific Heat {J/kg-K}
  0.9,                                    ! Thermal Absorptance
  0.65,                                   ! Solar Absorptance
  0.65;                                   ! Visible Absorptance

OS:Material,
  {cac93cb5-ae2c-4a79-ac1e-d3cbfa37188f}, ! Handle
  Wall Insulation [4],                    ! Name
  MediumRough,                            ! Roughness
  0.0338606,                              ! Thickness {m}
  0.0432,                                 ! Conductivity {W/m-K}
  91,                                     ! Density {kg/m3}
  837,                                    ! Specific Heat {J/kg-K}
  0.9,                                    ! Thermal Absorptance
  0.5,                                    ! Solar Absorptance
  0.5;                                    ! Visible Absorptance

OS:Material,
  {de794c93-adb3-4423-969a-d2b1b21f2305}, ! Handle
  1/2IN Gypsum,                           ! Name
  Smooth,                                 ! Roughness
  0.01271,                                ! Thickness {m}
  0.16,                                   ! Conductivity {W/m-K}
  784.9,                                  ! Density {kg/m3}
  830,                                    ! Specific Heat {J/kg-K}
  0.9,                                    ! Thermal Absorptance
  0.92,                                   ! Solar Absorptance
  0.92;                                   ! Visible Absorptance

OS:ComponentCost:LineItem,
  {d986c2a8-6159-4f0d-a22c-b37ca73b0307}, ! Handle
  90.1-2001 Nonres B10 Ext Wall Mass,     ! Name
  ,                                       ! Type
  Construction,                           ! Line Item Type
  90.1-2001 Nonres B10 Ext Wall Mass,     ! Item Name
  ,                                       ! Object End Use Key
  ,                                       ! Quantity {dimensionless}
  58.897,                                 ! Material Cost {$}
  CostPerArea;                            ! Material Cost Units

OS:ComponentData,
  {ccc44469-eb8b-4ef6-9e0b-038253c1e2d5}, ! Handle
  Component Data 1,                       ! Name
  {2a9b91fe-fb3f-4cd2-bc84-4cdc0c1eeb19}, ! UUID
  {ced26c32-decd-42d2-b64c-6f066204c0a9}, ! Version UUID
  1363981338,                             ! Creation Timestamp
  1363981338,                             ! Version Timestamp
  {203c905d-ab46-4e98-bd9c-4af5c9986807}, ! Name of Object 1
  {1a7355fe-5e35-48ca-9053-8005f70c5d03}, ! Name of Object 2
  {ed082122-c65a-4c51-b352-6caa67d10fd7}, ! Name of Object 3
  {cac93cb5-ae2c-4a79-ac1e-d3cbfa37188f}, ! Name of Object 4
  {de794c93-adb3-4423-969a-d2b1b21f2305}, ! Name of Object 5
  {d986c2a8-6159-4f0d-a22c-b37ca73b0307}; ! Name of Object 6

