
OS:Version,
  {86328d6b-0c0f-4b9c-b494-48f3160bf297}, ! Handle
  0.9.3;                                  ! Version Identifier

OS:Material,
  {30c5c1c3-de8c-495a-aeb8-1face7b3cde8}, ! Handle
  1IN Stucco,                             ! Name
  Smooth,                                 ! Roughness
  0.0253,                                 ! Thickness {m}
  0.6918,                                 ! Conductivity {W/m-K}
  1858,                                   ! Density {kg/m3}
  837,                                    ! Specific Heat {J/kg-K}
  0.9,                                    ! Thermal Absorptance
  0.92,                                   ! Solar Absorptance
  0.92;                                   ! Visible Absorptance

OS:Material,
  {22fbbd2f-60ac-45aa-a2cc-806a6ec807c8}, ! Handle
  Wall Insulation [4],                    ! Name
  MediumRough,                            ! Roughness
  0.0338606,                              ! Thickness {m}
  0.0432,                                 ! Conductivity {W/m-K}
  91,                                     ! Density {kg/m3}
  837,                                    ! Specific Heat {J/kg-K}
  0.9,                                    ! Thermal Absorptance
  0.5,                                    ! Solar Absorptance
  0.5;                                    ! Visible Absorptance

OS:Material,
  {4ec4d9fb-5e80-4996-9b20-ced9f5a9477e}, ! Handle
  1/2IN Gypsum,                           ! Name
  Smooth,                                 ! Roughness
  0.01271,                                ! Thickness {m}
  0.16,                                   ! Conductivity {W/m-K}
  784.9,                                  ! Density {kg/m3}
  830,                                    ! Specific Heat {J/kg-K}
  0.9,                                    ! Thermal Absorptance
  0.92,                                   ! Solar Absorptance
  0.92;                                   ! Visible Absorptance

OS:ComponentCost:LineItem,
  {2c6b7bbd-a3be-4a61-9e80-a6e812c51005}, ! Handle
  90.1-2001 Nonres B10 Ext Wall Mass,     ! Name
  ,                                       ! Type
  Construction,                           ! Line Item Type
  90.1-2001 Nonres B10 Ext Wall Mass,     ! Item Name
  ,                                       ! Object End Use Key
  ,                                       ! Quantity {dimensionless}
  58.897,                                 ! Material Cost {$}
  CostPerArea;                            ! Material Cost Units

OS:Construction,
  {30089098-5689-44a4-8f97-662329723a87}, ! Handle
  90.1-2001 Nonres B10 Ext Wall Mass,     ! Name
  ,                                       ! Surface Rendering Name
  {30c5c1c3-de8c-495a-aeb8-1face7b3cde8}, ! Layer 1
  {495a5129-2cf7-45fc-87c1-9f9576ec27c8}, ! Layer 2
  {22fbbd2f-60ac-45aa-a2cc-806a6ec807c8}, ! Layer 3
  {4ec4d9fb-5e80-4996-9b20-ced9f5a9477e}; ! Layer 4

OS:Material,
  {495a5129-2cf7-45fc-87c1-9f9576ec27c8}, ! Handle
  8IN Concrete HW,                        ! Name
  MediumRough,                            ! Roughness
  0.2033,                                 ! Thickness {m}
  1.7296,                                 ! Conductivity {W/m-K}
  2243,                                   ! Density {kg/m3}
  837,                                    ! Specific Heat {J/kg-K}
  0.9,                                    ! Thermal Absorptance
  0.65,                                   ! Solar Absorptance
  0.65;                                   ! Visible Absorptance

