
OS:Version,
  {cb4ceffe-2c34-4b94-b49e-380a5dbd8560}, ! Handle
  0.9.3;                                  ! Version Identifier

OS:Construction,
  {d553d1a7-b11e-4fee-ab29-bb868d859797}, ! Handle
  189.1-2009 Nonres 6B Roof Attic and Other, ! Name
  ,                                       ! Surface Rendering Name
  {94790b7b-1653-4e3c-84c8-1bf92f3f8482}, ! Layer 1
  {4a2e574e-db55-4cf0-8336-2aa494a2b6c9}, ! Layer 2
  {8bc17acf-e734-4a59-82dd-32b3e60d33f7}, ! Layer 3
  {98cb3ac2-f31e-46b0-acf2-34eb776cd5ae}; ! Layer 4

OS:Material,
  {94790b7b-1653-4e3c-84c8-1bf92f3f8482}, ! Handle
  Wood Shingles,                          ! Name
  VeryRough,                              ! Roughness
  0.0178,                                 ! Thickness {m}
  0.115,                                  ! Conductivity {W/m-K}
  513,                                    ! Density {kg/m3}
  1255,                                   ! Specific Heat {J/kg-K}
  0.9,                                    ! Thermal Absorptance
  0.78,                                   ! Solar Absorptance
  0.78;                                   ! Visible Absorptance

OS:Material,
  {4a2e574e-db55-4cf0-8336-2aa494a2b6c9}, ! Handle
  1IN Wood Decking,                       ! Name
  MediumSmooth,                           ! Roughness
  0.0254,                                 ! Thickness {m}
  0.1211,                                 ! Conductivity {W/m-K}
  593,                                    ! Density {kg/m3}
  2510,                                   ! Specific Heat {J/kg-K}
  0.9,                                    ! Thermal Absorptance
  0.78,                                   ! Solar Absorptance
  0.78;                                   ! Visible Absorptance

OS:Material,
  {8bc17acf-e734-4a59-82dd-32b3e60d33f7}, ! Handle
  Roof Insulation [23],                   ! Name
  MediumRough,                            ! Roughness
  0.375211,                               ! Thickness {m}
  0.049,                                  ! Conductivity {W/m-K}
  265,                                    ! Density {kg/m3}
  836.8,                                  ! Specific Heat {J/kg-K}
  0.9,                                    ! Thermal Absorptance
  0.7,                                    ! Solar Absorptance
  0.7;                                    ! Visible Absorptance

OS:Material,
  {98cb3ac2-f31e-46b0-acf2-34eb776cd5ae}, ! Handle
  1/2IN Gypsum,                           ! Name
  Smooth,                                 ! Roughness
  0.01271,                                ! Thickness {m}
  0.16,                                   ! Conductivity {W/m-K}
  784.9,                                  ! Density {kg/m3}
  830,                                    ! Specific Heat {J/kg-K}
  0.9,                                    ! Thermal Absorptance
  0.92,                                   ! Solar Absorptance
  0.92;                                   ! Visible Absorptance

OS:ComponentCost:LineItem,
  {c2a3fab2-69b9-4a2a-98a2-402a685a7ff9}, ! Handle
  189.1-2009 Nonres 6B Roof Attic and Other, ! Name
  ,                                       ! Type
  Construction,                           ! Line Item Type
  189.1-2009 Nonres 6B Roof Attic and Other, ! Item Name
  ,                                       ! Object End Use Key
  ,                                       ! Quantity {dimensionless}
  36.871,                                 ! Material Cost {$}
  CostPerArea;                            ! Material Cost Units

