
OS:Version,
  {6d38359a-cc5d-49c9-9de2-37e3468b18e8}, !- Handle
  1.1.0;                                  !- Version Identifier

OS:Construction,
  {0be2d6bd-d71c-499c-bac3-54dc98beffb9}, !- Handle
  Sgl Bronze 3mm,                         !- Name
  ,                                       !- Surface Rendering Name
  {d26c875b-2981-4976-b313-b409cdb2e1ab}; !- Layer 1

OS:WindowMaterial:Glazing,
  {d26c875b-2981-4976-b313-b409cdb2e1ab}, !- Handle
  BRONZE 3MM,                             !- Name
  SpectralAverage,                        !- Optical Data Type
  ,                                       !- Window Glass Spectral Data Set Name
  0.003,                                  !- Thickness {m}
  0.645,                                  !- Solar Transmittance at Normal Incidence
  0.062,                                  !- Front Side Solar Reflectance at Normal Incidence
  0.062,                                  !- Back Side Solar Reflectance at Normal Incidence
  0.685,                                  !- Visible Transmittance at Normal Incidence
  0.065,                                  !- Front Side Visible Reflectance at Normal Incidence
  0.065,                                  !- Back Side Visible Reflectance at Normal Incidence
  0,                                      !- Infrared Transmittance at Normal Incidence
  0.84,                                   !- Front Side Infrared Hemispherical Emissivity
  0.84,                                   !- Back Side Infrared Hemispherical Emissivity
  0.9;                                    !- Conductivity {W/m-K}

