
OS:Version,
  {296f4ee3-539c-4979-b44c-e8252775128e}, ! Handle
  0.9.3;                                  ! Version Identifier

OS:Material,
  {8c54f719-03f4-4d5f-96db-df26e0519f9c}, ! Handle
  Metal Siding,                           ! Name
  Smooth,                                 ! Roughness
  0.0015,                                 ! Thickness {m}
  44.96,                                  ! Conductivity {W/m-K}
  7688.86,                                ! Density {kg/m3}
  410,                                    ! Specific Heat {J/kg-K}
  0.9,                                    ! Thermal Absorptance
  0.2,                                    ! Solar Absorptance
  0.2;                                    ! Visible Absorptance

OS:Material,
  {782e2a42-bf24-45ab-a7df-1e9a001167b0}, ! Handle
  1/2IN Gypsum,                           ! Name
  Smooth,                                 ! Roughness
  0.01271,                                ! Thickness {m}
  0.16,                                   ! Conductivity {W/m-K}
  784.9,                                  ! Density {kg/m3}
  830,                                    ! Specific Heat {J/kg-K}
  0.9,                                    ! Thermal Absorptance
  0.92,                                   ! Solar Absorptance
  0.92;                                   ! Visible Absorptance

OS:Material,
  {b5cc6eb4-30f9-4d6c-bf90-56c2426494ca}, ! Handle
  Wall Insulation,                        ! Name
  MediumRough,                            ! Roughness
  0.0598725,                              ! Thickness {m}
  0.045,                                  ! Conductivity {W/m-K}
  265,                                    ! Density {kg/m3}
  836.8,                                  ! Specific Heat {J/kg-K}
  0.9,                                    ! Thermal Absorptance
  0.7,                                    ! Solar Absorptance
  0.7;                                    ! Visible Absorptance

OS:ComponentCost:LineItem,
  {f483e5c8-b4ca-4e06-896b-aa76d6addfd4}, ! Handle
  90.1-2004 Res 1A Ext Wall Metal Building, ! Name
  ,                                       ! Type
  Construction,                           ! Line Item Type
  90.1-2004 Res 1A Ext Wall Metal Building, ! Item Name
  ,                                       ! Object End Use Key
  ,                                       ! Quantity {dimensionless}
  98.78,                                  ! Material Cost {$}
  CostPerArea;                            ! Material Cost Units

OS:Construction,
  {cce1addd-4a17-4ca0-b733-3dec75390833}, ! Handle
  90.1-2004 Res 1A Ext Wall Metal Building, ! Name
  ,                                       ! Surface Rendering Name
  {8c54f719-03f4-4d5f-96db-df26e0519f9c}, ! Layer 1
  {b5cc6eb4-30f9-4d6c-bf90-56c2426494ca}, ! Layer 2
  {782e2a42-bf24-45ab-a7df-1e9a001167b0}; ! Layer 3

