
OS:Version,
  {88eacc05-2dca-4798-9062-32f68119ad7e}, ! Handle
  0.9.3;                                  ! Version Identifier

OS:Material,
  {e6693544-5b57-40e6-8055-3bf4e2cb0dce}, ! Handle
  Wall Insulation [4],                    ! Name
  MediumRough,                            ! Roughness
  0.0338606,                              ! Thickness {m}
  0.0432,                                 ! Conductivity {W/m-K}
  91,                                     ! Density {kg/m3}
  837,                                    ! Specific Heat {J/kg-K}
  0.9,                                    ! Thermal Absorptance
  0.5,                                    ! Solar Absorptance
  0.5;                                    ! Visible Absorptance

OS:Material,
  {8ad7a456-36e2-459d-a05d-92cb169aff29}, ! Handle
  8IN Concrete HW,                        ! Name
  MediumRough,                            ! Roughness
  0.2033,                                 ! Thickness {m}
  1.7296,                                 ! Conductivity {W/m-K}
  2243,                                   ! Density {kg/m3}
  837,                                    ! Specific Heat {J/kg-K}
  0.9,                                    ! Thermal Absorptance
  0.65,                                   ! Solar Absorptance
  0.65;                                   ! Visible Absorptance

OS:ComponentCost:LineItem,
  {5a668e94-13e7-4a31-abfa-21985ff9a7a1}, ! Handle
  90.1-1999 Res B1 Ext Wall Mass,         ! Name
  ,                                       ! Type
  Construction,                           ! Line Item Type
  90.1-1999 Res B1 Ext Wall Mass,         ! Item Name
  ,                                       ! Object End Use Key
  ,                                       ! Quantity {dimensionless}
  58.897,                                 ! Material Cost {$}
  CostPerArea;                            ! Material Cost Units

OS:Material,
  {8b4f5df8-0b70-422a-807d-0fd643b7f80f}, ! Handle
  1/2IN Gypsum,                           ! Name
  Smooth,                                 ! Roughness
  0.01271,                                ! Thickness {m}
  0.16,                                   ! Conductivity {W/m-K}
  784.9,                                  ! Density {kg/m3}
  830,                                    ! Specific Heat {J/kg-K}
  0.9,                                    ! Thermal Absorptance
  0.92,                                   ! Solar Absorptance
  0.92;                                   ! Visible Absorptance

OS:Construction,
  {266b8cd2-3d76-486a-a103-319b73cb5d67}, ! Handle
  90.1-1999 Res B1 Ext Wall Mass,         ! Name
  ,                                       ! Surface Rendering Name
  {0cc83180-0148-4e62-a3bf-ccb823126b89}, ! Layer 1
  {8ad7a456-36e2-459d-a05d-92cb169aff29}, ! Layer 2
  {e6693544-5b57-40e6-8055-3bf4e2cb0dce}, ! Layer 3
  {8b4f5df8-0b70-422a-807d-0fd643b7f80f}; ! Layer 4

OS:Material,
  {0cc83180-0148-4e62-a3bf-ccb823126b89}, ! Handle
  1IN Stucco,                             ! Name
  Smooth,                                 ! Roughness
  0.0253,                                 ! Thickness {m}
  0.6918,                                 ! Conductivity {W/m-K}
  1858,                                   ! Density {kg/m3}
  837,                                    ! Specific Heat {J/kg-K}
  0.9,                                    ! Thermal Absorptance
  0.92,                                   ! Solar Absorptance
  0.92;                                   ! Visible Absorptance

