
OS:Version,
  {96398aa5-e99e-4bda-a641-04c6adb53170}, ! Handle
  0.9.3;                                  ! Version Identifier

OS:Construction,
  {5221771c-03ef-4d3c-b3b8-c7d7356617fd}, ! Handle
  90.1-2007 Res 1A Window Metal framing curtainwall-storefront, ! Name
  ,                                       ! Surface Rendering Name
  {c0b872b6-e481-4fcf-9c70-f6c7237c0fb0}; ! Layer 1

OS:WindowMaterial:Glazing,
  {c0b872b6-e481-4fcf-9c70-f6c7237c0fb0}, ! Handle
  Theoretical Glass [167],                ! Name
  SpectralAverage,                        ! Optical Data Type
  ,                                       ! Window Glass Spectral Data Set Name
  0.003,                                  ! Thickness {m}
  0.237362,                               ! Solar Transmittance at Normal Incidence
  0.712638,                               ! Front Side Solar Reflectance at Normal Incidence
  0.712638,                               ! Back Side Solar Reflectance at Normal Incidence
  0.251212,                               ! Visible Transmittance at Normal Incidence
  0.698788,                               ! Front Side Visible Reflectance at Normal Incidence
  0.698788,                               ! Back Side Visible Reflectance at Normal Incidence
  0,                                      ! Infrared Transmittance at Normal Incidence
  0.985,                                  ! Front Side Infrared Hemispherical Emissivity
  0.985,                                  ! Back Side Infrared Hemispherical Emissivity
  2.10728;                                ! Conductivity {W/m-K}

OS:ComponentCost:LineItem,
  {a39ceb90-8a86-4c4b-bef8-556fb027a757}, ! Handle
  90.1-2007 Res 1A Window Metal framing curtainwall-storefront, ! Name
  ,                                       ! Type
  Construction,                           ! Line Item Type
  90.1-2007 Res 1A Window Metal framing curtainwall-storefront, ! Item Name
  ,                                       ! Object End Use Key
  ,                                       ! Quantity {dimensionless}
  534.616,                                ! Material Cost {$}
  CostPerArea;                            ! Material Cost Units

OS:ComponentData,
  {dd96feb6-8033-41c3-837a-628949227668}, ! Handle
  Component Data 1,                       ! Name
  {97257dd3-702a-43ff-860e-7c6c5a8fb086}, ! UUID
  {09d4263f-d2a1-4591-849e-01ac0df5b33e}, ! Version UUID
  1363981835,                             ! Creation Timestamp
  1363981835,                             ! Version Timestamp
  {5221771c-03ef-4d3c-b3b8-c7d7356617fd}, ! Name of Object 1
  {c0b872b6-e481-4fcf-9c70-f6c7237c0fb0}, ! Name of Object 2
  {a39ceb90-8a86-4c4b-bef8-556fb027a757}; ! Name of Object 3

