
OS:Version,
  {e801e8be-d708-450f-9f5e-d360e30967a3}, ! Handle
  0.9.3;                                  ! Version Identifier

OS:WindowMaterial:Glazing,
  {2b3df905-a9f0-42a4-a073-58d1869c8d29}, ! Handle
  Theoretical Glass [167],                ! Name
  SpectralAverage,                        ! Optical Data Type
  ,                                       ! Window Glass Spectral Data Set Name
  0.003,                                  ! Thickness {m}
  0.237362,                               ! Solar Transmittance at Normal Incidence
  0.712638,                               ! Front Side Solar Reflectance at Normal Incidence
  0.712638,                               ! Back Side Solar Reflectance at Normal Incidence
  0.251212,                               ! Visible Transmittance at Normal Incidence
  0.698788,                               ! Front Side Visible Reflectance at Normal Incidence
  0.698788,                               ! Back Side Visible Reflectance at Normal Incidence
  0,                                      ! Infrared Transmittance at Normal Incidence
  0.985,                                  ! Front Side Infrared Hemispherical Emissivity
  0.985,                                  ! Back Side Infrared Hemispherical Emissivity
  2.10728;                                ! Conductivity {W/m-K}

OS:Construction,
  {c556f789-9ccd-4d98-9422-6bae93655c9d}, ! Handle
  90.1-2007 Res 1A Window Metal framing curtainwall-storefront, ! Name
  ,                                       ! Surface Rendering Name
  {2b3df905-a9f0-42a4-a073-58d1869c8d29}; ! Layer 1

OS:ComponentCost:LineItem,
  {71b252e4-bcbe-47ca-9d28-f63650715ecb}, ! Handle
  90.1-2007 Res 1A Window Metal framing curtainwall-storefront, ! Name
  ,                                       ! Type
  Construction,                           ! Line Item Type
  90.1-2007 Res 1A Window Metal framing curtainwall-storefront, ! Item Name
  ,                                       ! Object End Use Key
  ,                                       ! Quantity {dimensionless}
  534.616,                                ! Material Cost {$}
  CostPerArea;                            ! Material Cost Units

