
OS:Version,
  {51d51475-9cee-4d17-b6d1-3a1f4309a0a8}, ! Handle
  0.9.3;                                  ! Version Identifier

OS:Material,
  {ccd37fea-d5a1-4ae0-9914-e7eae83d041f}, ! Handle
  1/2IN Gypsum,                           ! Name
  Smooth,                                 ! Roughness
  0.01271,                                ! Thickness {m}
  0.16,                                   ! Conductivity {W/m-K}
  784.9,                                  ! Density {kg/m3}
  830,                                    ! Specific Heat {J/kg-K}
  0.9,                                    ! Thermal Absorptance
  0.92,                                   ! Solar Absorptance
  0.92;                                   ! Visible Absorptance

OS:ComponentCost:LineItem,
  {56305a1e-d658-4b86-8122-82749ca51a68}, ! Handle
  90.1-2001 Res B24 Ext Wall Mass,        ! Name
  ,                                       ! Type
  Construction,                           ! Line Item Type
  90.1-2001 Res B24 Ext Wall Mass,        ! Item Name
  ,                                       ! Object End Use Key
  ,                                       ! Quantity {dimensionless}
  70.253,                                 ! Material Cost {$}
  CostPerArea;                            ! Material Cost Units

OS:Material,
  {4d814691-4169-4f24-985c-c056c11aecf8}, ! Handle
  Wall Insulation [14],                   ! Name
  MediumRough,                            ! Roughness
  0.0905233,                              ! Thickness {m}
  0.0432,                                 ! Conductivity {W/m-K}
  91,                                     ! Density {kg/m3}
  837,                                    ! Specific Heat {J/kg-K}
  0.9,                                    ! Thermal Absorptance
  0.5,                                    ! Solar Absorptance
  0.5;                                    ! Visible Absorptance

OS:Construction,
  {32fa8644-b331-4e37-8ff4-83d6193256ec}, ! Handle
  90.1-2001 Res B24 Ext Wall Mass,        ! Name
  ,                                       ! Surface Rendering Name
  {6062b469-85de-46bb-a4de-dec61558dc46}, ! Layer 1
  {a132ba95-76fe-42cc-a9d9-5b7c49375a63}, ! Layer 2
  {4d814691-4169-4f24-985c-c056c11aecf8}, ! Layer 3
  {ccd37fea-d5a1-4ae0-9914-e7eae83d041f}; ! Layer 4

OS:Material,
  {6062b469-85de-46bb-a4de-dec61558dc46}, ! Handle
  1IN Stucco,                             ! Name
  Smooth,                                 ! Roughness
  0.0253,                                 ! Thickness {m}
  0.6918,                                 ! Conductivity {W/m-K}
  1858,                                   ! Density {kg/m3}
  837,                                    ! Specific Heat {J/kg-K}
  0.9,                                    ! Thermal Absorptance
  0.92,                                   ! Solar Absorptance
  0.92;                                   ! Visible Absorptance

OS:Material,
  {a132ba95-76fe-42cc-a9d9-5b7c49375a63}, ! Handle
  8IN Concrete HW,                        ! Name
  MediumRough,                            ! Roughness
  0.2033,                                 ! Thickness {m}
  1.7296,                                 ! Conductivity {W/m-K}
  2243,                                   ! Density {kg/m3}
  837,                                    ! Specific Heat {J/kg-K}
  0.9,                                    ! Thermal Absorptance
  0.65,                                   ! Solar Absorptance
  0.65;                                   ! Visible Absorptance

