
OS:Version,
  {e84f132f-1599-43cb-bb5b-a2416c1e82a0}, ! Handle
  0.9.3;                                  ! Version Identifier

OS:Material,
  {7381ce7b-e4b5-43ab-9d50-4f11e1d3eaf0}, ! Handle
  Metal Siding,                           ! Name
  Smooth,                                 ! Roughness
  0.0015,                                 ! Thickness {m}
  44.96,                                  ! Conductivity {W/m-K}
  7688.86,                                ! Density {kg/m3}
  410,                                    ! Specific Heat {J/kg-K}
  0.9,                                    ! Thermal Absorptance
  0.2,                                    ! Solar Absorptance
  0.2;                                    ! Visible Absorptance

OS:Material,
  {644a8bf7-042e-4791-96dc-aae7e986d8be}, ! Handle
  1/2IN Gypsum,                           ! Name
  Smooth,                                 ! Roughness
  0.01271,                                ! Thickness {m}
  0.16,                                   ! Conductivity {W/m-K}
  784.9,                                  ! Density {kg/m3}
  830,                                    ! Specific Heat {J/kg-K}
  0.9,                                    ! Thermal Absorptance
  0.92,                                   ! Solar Absorptance
  0.92;                                   ! Visible Absorptance

OS:ComponentCost:LineItem,
  {a0ee27a7-19b7-4bcb-8254-0bba78d3b330}, ! Handle
  90.1-1999 Nonres B6 Ext Wall Metal Building, ! Name
  ,                                       ! Type
  Construction,                           ! Line Item Type
  90.1-1999 Nonres B6 Ext Wall Metal Building, ! Item Name
  ,                                       ! Object End Use Key
  ,                                       ! Quantity {dimensionless}
  98.78,                                  ! Material Cost {$}
  CostPerArea;                            ! Material Cost Units

OS:Material,
  {ca489b3e-c5ae-4966-b9df-b520914af10f}, ! Handle
  Wall Insulation,                        ! Name
  MediumRough,                            ! Roughness
  0.0598725,                              ! Thickness {m}
  0.045,                                  ! Conductivity {W/m-K}
  265,                                    ! Density {kg/m3}
  836.8,                                  ! Specific Heat {J/kg-K}
  0.9,                                    ! Thermal Absorptance
  0.7,                                    ! Solar Absorptance
  0.7;                                    ! Visible Absorptance

OS:Construction,
  {79a2195e-1c72-4bea-933e-b1c1fea83080}, ! Handle
  90.1-1999 Nonres B6 Ext Wall Metal Building, ! Name
  ,                                       ! Surface Rendering Name
  {7381ce7b-e4b5-43ab-9d50-4f11e1d3eaf0}, ! Layer 1
  {ca489b3e-c5ae-4966-b9df-b520914af10f}, ! Layer 2
  {644a8bf7-042e-4791-96dc-aae7e986d8be}; ! Layer 3

