
OS:Version,
  {69759411-5922-4222-9f9f-cbc1d910a4cb}, ! Handle
  0.9.3;                                  ! Version Identifier

OS:Material,
  {adaa1e95-aae3-4dd9-8ca7-d90d550d8b93}, ! Handle
  MAT-CC05 8 HW CONCRETE,                 ! Name
  Rough,                                  ! Roughness
  0.20321,                                ! Thickness {m}
  1.311,                                  ! Conductivity {W/m-K}
  2240,                                   ! Density {kg/m3}
  836.8,                                  ! Specific Heat {J/kg-K}
  0.9,                                    ! Thermal Absorptance
  0.7,                                    ! Solar Absorptance
  0.7;                                    ! Visible Absorptance

OS:Material,
  {0f8a4323-4dbd-40bd-a97c-7d3b34960376}, ! Handle
  Floor Insulation [2],                   ! Name
  MediumRough,                            ! Roughness
  0.0635689,                              ! Thickness {m}
  0.045,                                  ! Conductivity {W/m-K}
  265,                                    ! Density {kg/m3}
  836.8,                                  ! Specific Heat {J/kg-K}
  0.9,                                    ! Thermal Absorptance
  0.7,                                    ! Solar Absorptance
  0.7;                                    ! Visible Absorptance

OS:Construction,
  {d8152c0b-53eb-4438-8f38-21b317b12627}, ! Handle
  90.1-2004 Res 3C Exposed Floor Mass,    ! Name
  ,                                       ! Surface Rendering Name
  {0f8a4323-4dbd-40bd-a97c-7d3b34960376}, ! Layer 1
  {adaa1e95-aae3-4dd9-8ca7-d90d550d8b93}, ! Layer 2
  {c4dbaf0d-3ac2-4818-a3a3-9eb4dd1b7232}; ! Layer 3

OS:Material:NoMass,
  {c4dbaf0d-3ac2-4818-a3a3-9eb4dd1b7232}, ! Handle
  CP02 CARPET PAD,                        ! Name
  VeryRough,                              ! Roughness
  0.21648,                                ! Thermal Resistance {m2-K/W}
  0.9,                                    ! Thermal Absorptance
  0.7,                                    ! Solar Absorptance
  0.8;                                    ! Visible Absorptance

OS:ComponentCost:LineItem,
  {dddc2516-8811-41b4-aca0-2a886d97c396}, ! Handle
  90.1-2004 Res 3C Exposed Floor Mass,    ! Name
  ,                                       ! Type
  Construction,                           ! Line Item Type
  90.1-2004 Res 3C Exposed Floor Mass,    ! Item Name
  ,                                       ! Object End Use Key
  ,                                       ! Quantity {dimensionless}
  49.612,                                 ! Material Cost {$}
  CostPerArea;                            ! Material Cost Units

