
! 
OS:Version,
  {9c37d538-db0d-4a47-9850-5bede7e76bd5}, !- Handle
  1.13.0;                                 !- Version Identifier


! {"nombreProductoCorto": "STADIP 88.2 con COOL-LITE ST167", "codigoEAN": "", "handle": "66f1a03a-8d85-46b8-a02d-c2ba4d4b97a9", "g": 0.65, "tV": 0.7, "u": 5.4, "nombreProducto": "STADIP 88.2 con COOL-LITE ST167\nU:5.4 W/m2K - g:0.65 - Tv: 0.70"}
OS:WindowMaterial:SimpleGlazingSystem,
  {66f1a03a-8d85-46b8-a02d-c2ba4d4b97a9}, !- Handle
  STADIP 88.2 con COOL-LITE ST167, !- Name
  5.4,                                    !- U-Factor {W/m2-K}
  0.65,                                    !- Solar Heat Gain Coefficient
  0.7;                                    !- Visible Transmittance     
  
  
OS:Construction,
  {68fbd40d-171c-4321-9447-93dd8a39f5c7}, !- Handle
  STADIP 88.2 con COOL-LITE ST167,                         !- Name
  ,                                       !- Surface Rendering Name
  {66f1a03a-8d85-46b8-a02d-c2ba4d4b97a9}; !- Layer 1  

