
OS:Version,
  {62bad943-f1f0-4d25-abdc-f415d1088989}, ! Handle
  0.9.3;                                  ! Version Identifier

OS:Material,
  {c6a5171a-071e-42b6-b0e6-e8a8abc95eb1}, ! Handle
  Wall Insulation [1],                    ! Name
  MediumRough,                            ! Roughness
  0.0373223,                              ! Thickness {m}
  0.045,                                  ! Conductivity {W/m-K}
  265,                                    ! Density {kg/m3}
  836.8,                                  ! Specific Heat {J/kg-K}
  0.9,                                    ! Thermal Absorptance
  0.7,                                    ! Solar Absorptance
  0.7;                                    ! Visible Absorptance

OS:ComponentCost:LineItem,
  {baf43d79-d2d8-4be5-9be2-dca11f43accd}, ! Handle
  90.1-2001 Nonres B4 Ext Wall Steel-Framed, ! Name
  ,                                       ! Type
  Construction,                           ! Line Item Type
  90.1-2001 Nonres B4 Ext Wall Steel-Framed, ! Item Name
  ,                                       ! Object End Use Key
  ,                                       ! Quantity {dimensionless}
  87.08,                                  ! Material Cost {$}
  CostPerArea;                            ! Material Cost Units

OS:Material,
  {e4b24ed4-18b5-4f9f-ba16-f0805e1144db}, ! Handle
  1/2IN Gypsum,                           ! Name
  Smooth,                                 ! Roughness
  0.01271,                                ! Thickness {m}
  0.16,                                   ! Conductivity {W/m-K}
  784.9,                                  ! Density {kg/m3}
  830,                                    ! Specific Heat {J/kg-K}
  0.9,                                    ! Thermal Absorptance
  0.92,                                   ! Solar Absorptance
  0.92;                                   ! Visible Absorptance

OS:Construction,
  {57fbcd68-1ce8-4250-b2fb-86f004099579}, ! Handle
  90.1-2001 Nonres B4 Ext Wall Steel-Framed, ! Name
  ,                                       ! Surface Rendering Name
  {8b788bde-af4f-4ae0-9aff-d0cf993256d3}, ! Layer 1
  {c6a5171a-071e-42b6-b0e6-e8a8abc95eb1}, ! Layer 2
  {e4b24ed4-18b5-4f9f-ba16-f0805e1144db}; ! Layer 3

OS:Material:NoMass,
  {8b788bde-af4f-4ae0-9aff-d0cf993256d3}, ! Handle
  MAT-SHEATH,                             ! Name
  Rough,                                  ! Roughness
  0.36256,                                ! Thermal Resistance {m2-K/W}
  0.9,                                    ! Thermal Absorptance
  0.7,                                    ! Solar Absorptance
  0.7;                                    ! Visible Absorptance

