
OS:Version,
  {b75c3d03-dfa2-40db-a7e7-cce52de7cae0}, ! Handle
  0.9.3;                                  ! Version Identifier

OS:Construction,
  {1f5d4391-fd68-497e-9a42-152bb234bf6a}, ! Handle
  90.1-2004 Nonres 8A Ext Wall Mass,      ! Name
  ,                                       ! Surface Rendering Name
  {8740f889-a7d2-441c-9af9-fd69f94f14e2}, ! Layer 1
  {87ebe214-3ada-4ef2-ba62-4ae69ab7ddae}, ! Layer 2
  {aaf6b630-6eca-4b57-9e65-8eb25257f115}, ! Layer 3
  {2c117be4-71b6-4cba-a2bf-ed89f15ed840}; ! Layer 4

OS:Material,
  {8740f889-a7d2-441c-9af9-fd69f94f14e2}, ! Handle
  1IN Stucco,                             ! Name
  Smooth,                                 ! Roughness
  0.0253,                                 ! Thickness {m}
  0.6918,                                 ! Conductivity {W/m-K}
  1858,                                   ! Density {kg/m3}
  837,                                    ! Specific Heat {J/kg-K}
  0.9,                                    ! Thermal Absorptance
  0.92,                                   ! Solar Absorptance
  0.92;                                   ! Visible Absorptance

OS:Material,
  {87ebe214-3ada-4ef2-ba62-4ae69ab7ddae}, ! Handle
  8IN Concrete HW,                        ! Name
  MediumRough,                            ! Roughness
  0.2033,                                 ! Thickness {m}
  1.7296,                                 ! Conductivity {W/m-K}
  2243,                                   ! Density {kg/m3}
  837,                                    ! Specific Heat {J/kg-K}
  0.9,                                    ! Thermal Absorptance
  0.65,                                   ! Solar Absorptance
  0.65;                                   ! Visible Absorptance

OS:Material,
  {aaf6b630-6eca-4b57-9e65-8eb25257f115}, ! Handle
  Wall Insulation [12],                   ! Name
  MediumRough,                            ! Roughness
  0.0784782,                              ! Thickness {m}
  0.0432,                                 ! Conductivity {W/m-K}
  91,                                     ! Density {kg/m3}
  837,                                    ! Specific Heat {J/kg-K}
  0.9,                                    ! Thermal Absorptance
  0.5,                                    ! Solar Absorptance
  0.5;                                    ! Visible Absorptance

OS:Material,
  {2c117be4-71b6-4cba-a2bf-ed89f15ed840}, ! Handle
  1/2IN Gypsum,                           ! Name
  Smooth,                                 ! Roughness
  0.01271,                                ! Thickness {m}
  0.16,                                   ! Conductivity {W/m-K}
  784.9,                                  ! Density {kg/m3}
  830,                                    ! Specific Heat {J/kg-K}
  0.9,                                    ! Thermal Absorptance
  0.92,                                   ! Solar Absorptance
  0.92;                                   ! Visible Absorptance

OS:ComponentCost:LineItem,
  {bd5114d4-116f-403a-9342-3059138929f6}, ! Handle
  90.1-2004 Nonres 8A Ext Wall Mass,      ! Name
  ,                                       ! Type
  Construction,                           ! Line Item Type
  90.1-2004 Nonres 8A Ext Wall Mass,      ! Item Name
  ,                                       ! Object End Use Key
  ,                                       ! Quantity {dimensionless}
  67.955,                                 ! Material Cost {$}
  CostPerArea;                            ! Material Cost Units

