
OS:Version,
  {2850b5ff-3678-419d-a820-eea76d5988fb}, ! Handle
  0.9.3;                                  ! Version Identifier

OS:Construction,
  {4980bbee-5056-4412-a7e8-c535684c1812}, ! Handle
  90.1-2007 Res 6B Roof IEAD,             ! Name
  ,                                       ! Surface Rendering Name
  {e37b898f-b588-4ee8-80b3-303dbaa8cd75}, ! Layer 1
  {c75a8384-e2ae-492c-83bf-fae1d5844c59}, ! Layer 2
  {f5e57071-267b-403c-93d1-c3017d804568}; ! Layer 3

OS:Material,
  {e37b898f-b588-4ee8-80b3-303dbaa8cd75}, ! Handle
  Roof Membrane,                          ! Name
  VeryRough,                              ! Roughness
  0.0095,                                 ! Thickness {m}
  0.16,                                   ! Conductivity {W/m-K}
  1121.29,                                ! Density {kg/m3}
  1460,                                   ! Specific Heat {J/kg-K}
  0.9,                                    ! Thermal Absorptance
  0.7,                                    ! Solar Absorptance
  0.7;                                    ! Visible Absorptance

OS:Material,
  {c75a8384-e2ae-492c-83bf-fae1d5844c59}, ! Handle
  Roof Insulation [14],                   ! Name
  MediumRough,                            ! Roughness
  0.167335,                               ! Thickness {m}
  0.049,                                  ! Conductivity {W/m-K}
  265,                                    ! Density {kg/m3}
  836.8,                                  ! Specific Heat {J/kg-K}
  0.9,                                    ! Thermal Absorptance
  0.7,                                    ! Solar Absorptance
  0.7;                                    ! Visible Absorptance

OS:Material,
  {f5e57071-267b-403c-93d1-c3017d804568}, ! Handle
  Metal Decking,                          ! Name
  MediumSmooth,                           ! Roughness
  0.001524,                               ! Thickness {m}
  45.006,                                 ! Conductivity {W/m-K}
  7680,                                   ! Density {kg/m3}
  418.4,                                  ! Specific Heat {J/kg-K}
  0.9,                                    ! Thermal Absorptance
  0.7,                                    ! Solar Absorptance
  0.3;                                    ! Visible Absorptance

OS:ComponentCost:LineItem,
  {73e63d0d-873d-410a-8f6c-af9721ac87ce}, ! Handle
  90.1-2007 Res 6B Roof IEAD,             ! Name
  ,                                       ! Type
  Construction,                           ! Line Item Type
  90.1-2007 Res 6B Roof IEAD,             ! Item Name
  ,                                       ! Object End Use Key
  ,                                       ! Quantity {dimensionless}
  52.87,                                  ! Material Cost {$}
  CostPerArea;                            ! Material Cost Units

