
OS:Version,
  {963eff97-0b97-4a04-81cc-df01e693ab44}, ! Handle
  0.9.3;                                  ! Version Identifier

OS:Material,
  {f2b6a3bc-f788-4b0b-b413-01e983355a41}, ! Handle
  Wall Insulation [158],                  ! Name
  MediumRough,                            ! Roughness
  0.0509,                                 ! Thickness {m}
  0.0432,                                 ! Conductivity {W/m-K}
  91,                                     ! Density {kg/m3}
  837,                                    ! Specific Heat {J/kg-K}
  0.9,                                    ! Thermal Absorptance
  0.5,                                    ! Solar Absorptance
  0.5;                                    ! Visible Absorptance

OS:ComponentCost:LineItem,
  {493c57ae-d708-42d2-a238-8d67ae6ab60a}, ! Handle
  Title 24-2008 Nonres 12 Ext Wall Mass,  ! Name
  ,                                       ! Type
  Construction,                           ! Line Item Type
  Title 24-2008 Nonres 12 Ext Wall Mass,  ! Item Name
  ,                                       ! Object End Use Key
  ,                                       ! Quantity {dimensionless}
  211.895,                                ! Material Cost {$}
  CostPerArea;                            ! Material Cost Units

OS:Material,
  {3ef88b20-47b0-4bad-a8ec-c91376d46a2e}, ! Handle
  1/2IN Gypsum,                           ! Name
  Smooth,                                 ! Roughness
  0.01271,                                ! Thickness {m}
  0.16,                                   ! Conductivity {W/m-K}
  784.9,                                  ! Density {kg/m3}
  830,                                    ! Specific Heat {J/kg-K}
  0.9,                                    ! Thermal Absorptance
  0.92,                                   ! Solar Absorptance
  0.92;                                   ! Visible Absorptance

OS:Construction,
  {2385bc3e-cd9e-4a69-b294-494e89fef2b6}, ! Handle
  Title 24-2008 Nonres 12 Ext Wall Mass,  ! Name
  ,                                       ! Surface Rendering Name
  {adc21be5-a8e0-4381-9c59-df375427cd21}, ! Layer 1
  {1f6b2a60-68a3-4857-88ff-3a79c9eeecaf}, ! Layer 2
  {f2b6a3bc-f788-4b0b-b413-01e983355a41}, ! Layer 3
  {3ef88b20-47b0-4bad-a8ec-c91376d46a2e}; ! Layer 4

OS:Material,
  {adc21be5-a8e0-4381-9c59-df375427cd21}, ! Handle
  1IN Stucco,                             ! Name
  Smooth,                                 ! Roughness
  0.0253,                                 ! Thickness {m}
  0.6918,                                 ! Conductivity {W/m-K}
  1858,                                   ! Density {kg/m3}
  837,                                    ! Specific Heat {J/kg-K}
  0.9,                                    ! Thermal Absorptance
  0.92,                                   ! Solar Absorptance
  0.92;                                   ! Visible Absorptance

OS:Material,
  {1f6b2a60-68a3-4857-88ff-3a79c9eeecaf}, ! Handle
  8IN Concrete HW,                        ! Name
  MediumRough,                            ! Roughness
  0.2033,                                 ! Thickness {m}
  1.7296,                                 ! Conductivity {W/m-K}
  2243,                                   ! Density {kg/m3}
  837,                                    ! Specific Heat {J/kg-K}
  0.9,                                    ! Thermal Absorptance
  0.65,                                   ! Solar Absorptance
  0.65;                                   ! Visible Absorptance

