
OS:Version,
  {abde4922-d6fe-44cb-ab1b-bc6492397959}, ! Handle
  0.9.3;                                  ! Version Identifier

OS:Construction,
  {aa0e61be-cd5f-47a0-a667-43e9f5327c84}, ! Handle
  189.1-2009 Nonres 7A Window Metal framing curtainwall-storefront, ! Name
  ,                                       ! Surface Rendering Name
  {64bb4f4e-b8a6-42b1-83cc-b58b904a5ec5}; ! Layer 1

OS:WindowMaterial:Glazing,
  {64bb4f4e-b8a6-42b1-83cc-b58b904a5ec5}, ! Handle
  Theoretical Glass [219],                ! Name
  SpectralAverage,                        ! Optical Data Type
  ,                                       ! Window Glass Spectral Data Set Name
  0.003,                                  ! Thickness {m}
  0.428764,                               ! Solar Transmittance at Normal Incidence
  0.521236,                               ! Front Side Solar Reflectance at Normal Incidence
  0.521236,                               ! Back Side Solar Reflectance at Normal Incidence
  0.450308,                               ! Visible Transmittance at Normal Incidence
  0.499692,                               ! Front Side Visible Reflectance at Normal Incidence
  0.499692,                               ! Back Side Visible Reflectance at Normal Incidence
  0,                                      ! Infrared Transmittance at Normal Incidence
  0.9,                                    ! Front Side Infrared Hemispherical Emissivity
  0.9,                                    ! Back Side Infrared Hemispherical Emissivity
  0.0071399;                              ! Conductivity {W/m-K}

OS:ComponentCost:LineItem,
  {94d23e09-2e97-4040-8c27-e15dc4c5c058}, ! Handle
  189.1-2009 Nonres 7A Window Metal framing curtainwall-storefront, ! Name
  ,                                       ! Type
  Construction,                           ! Line Item Type
  189.1-2009 Nonres 7A Window Metal framing curtainwall-storefront, ! Item Name
  ,                                       ! Object End Use Key
  ,                                       ! Quantity {dimensionless}
  508.362,                                ! Material Cost {$}
  CostPerArea;                            ! Material Cost Units

OS:ComponentData,
  {fa989440-59a5-4ab4-bb15-ce8e681cfb53}, ! Handle
  Component Data 1,                       ! Name
  {ac662ab5-6ba9-4ded-ba90-2407a318b2fb}, ! UUID
  {5963398f-66b1-432d-946c-5f8051125b51}, ! Version UUID
  1363980953,                             ! Creation Timestamp
  1363980953,                             ! Version Timestamp
  {aa0e61be-cd5f-47a0-a667-43e9f5327c84}, ! Name of Object 1
  {64bb4f4e-b8a6-42b1-83cc-b58b904a5ec5}, ! Name of Object 2
  {94d23e09-2e97-4040-8c27-e15dc4c5c058}; ! Name of Object 3

