
OS:Version,
  {7f5371bb-1b0c-49a6-91d2-02e3f2208638}, ! Handle
  0.9.3;                                  ! Version Identifier

OS:ComponentCost:LineItem,
  {aab6325c-7621-4da5-9aa7-22d90c0df3e8}, ! Handle
  189.1-2009 Nonres 7A Window Metal framing curtainwall-storefront, ! Name
  ,                                       ! Type
  Construction,                           ! Line Item Type
  189.1-2009 Nonres 7A Window Metal framing curtainwall-storefront, ! Item Name
  ,                                       ! Object End Use Key
  ,                                       ! Quantity {dimensionless}
  508.362,                                ! Material Cost {$}
  CostPerArea;                            ! Material Cost Units

OS:Construction,
  {83eea877-11be-424d-8f8c-487b3f0c0adf}, ! Handle
  189.1-2009 Nonres 7A Window Metal framing curtainwall-storefront, ! Name
  ,                                       ! Surface Rendering Name
  {9b5d63b6-ddce-4821-a1d4-c784c3480afd}; ! Layer 1

OS:WindowMaterial:Glazing,
  {9b5d63b6-ddce-4821-a1d4-c784c3480afd}, ! Handle
  Theoretical Glass [219],                ! Name
  SpectralAverage,                        ! Optical Data Type
  ,                                       ! Window Glass Spectral Data Set Name
  0.003,                                  ! Thickness {m}
  0.428764,                               ! Solar Transmittance at Normal Incidence
  0.521236,                               ! Front Side Solar Reflectance at Normal Incidence
  0.521236,                               ! Back Side Solar Reflectance at Normal Incidence
  0.450308,                               ! Visible Transmittance at Normal Incidence
  0.499692,                               ! Front Side Visible Reflectance at Normal Incidence
  0.499692,                               ! Back Side Visible Reflectance at Normal Incidence
  0,                                      ! Infrared Transmittance at Normal Incidence
  0.9,                                    ! Front Side Infrared Hemispherical Emissivity
  0.9,                                    ! Back Side Infrared Hemispherical Emissivity
  0.0071399;                              ! Conductivity {W/m-K}

