
OS:Version,
  {9a86bbdf-9aa4-4644-92c6-384e9582386b}, ! Handle
  0.9.3;                                  ! Version Identifier

OS:Material,
  {0f558e80-ef23-4a88-94da-980037d480c7}, ! Handle
  1IN Wood Decking,                       ! Name
  MediumSmooth,                           ! Roughness
  0.0254,                                 ! Thickness {m}
  0.1211,                                 ! Conductivity {W/m-K}
  593,                                    ! Density {kg/m3}
  2510,                                   ! Specific Heat {J/kg-K}
  0.9,                                    ! Thermal Absorptance
  0.78,                                   ! Solar Absorptance
  0.78;                                   ! Visible Absorptance

OS:Material,
  {24b62ef8-0b1c-4c73-862f-1afc5bd4bf79}, ! Handle
  Roof Insulation [5],                    ! Name
  MediumRough,                            ! Roughness
  0.286906,                               ! Thickness {m}
  0.049,                                  ! Conductivity {W/m-K}
  265,                                    ! Density {kg/m3}
  836.8,                                  ! Specific Heat {J/kg-K}
  0.9,                                    ! Thermal Absorptance
  0.7,                                    ! Solar Absorptance
  0.7;                                    ! Visible Absorptance

OS:Material,
  {5dba8e98-0adf-4f9d-86fc-cd13076f50c5}, ! Handle
  Wood Shingles,                          ! Name
  VeryRough,                              ! Roughness
  0.0178,                                 ! Thickness {m}
  0.115,                                  ! Conductivity {W/m-K}
  513,                                    ! Density {kg/m3}
  1255,                                   ! Specific Heat {J/kg-K}
  0.9,                                    ! Thermal Absorptance
  0.78,                                   ! Solar Absorptance
  0.78;                                   ! Visible Absorptance

OS:Construction,
  {ddc159ce-9eee-4037-b9c4-1440c8c1dca0}, ! Handle
  90.1-2001 Nonres B25 Roof Attic and Other, ! Name
  ,                                       ! Surface Rendering Name
  {5dba8e98-0adf-4f9d-86fc-cd13076f50c5}, ! Layer 1
  {0f558e80-ef23-4a88-94da-980037d480c7}, ! Layer 2
  {24b62ef8-0b1c-4c73-862f-1afc5bd4bf79}, ! Layer 3
  {4040f521-e3e3-4f00-a874-0c51d0a7c59c}; ! Layer 4

OS:Material,
  {4040f521-e3e3-4f00-a874-0c51d0a7c59c}, ! Handle
  1/2IN Gypsum,                           ! Name
  Smooth,                                 ! Roughness
  0.01271,                                ! Thickness {m}
  0.16,                                   ! Conductivity {W/m-K}
  784.9,                                  ! Density {kg/m3}
  830,                                    ! Specific Heat {J/kg-K}
  0.9,                                    ! Thermal Absorptance
  0.92,                                   ! Solar Absorptance
  0.92;                                   ! Visible Absorptance

OS:ComponentCost:LineItem,
  {cab4bfe4-999e-4657-8c3e-22e84e1281d3}, ! Handle
  90.1-2001 Nonres B25 Roof Attic and Other, ! Name
  ,                                       ! Type
  Construction,                           ! Line Item Type
  90.1-2001 Nonres B25 Roof Attic and Other, ! Item Name
  ,                                       ! Object End Use Key
  ,                                       ! Quantity {dimensionless}
  34.757,                                 ! Material Cost {$}
  CostPerArea;                            ! Material Cost Units

