
OS:Version,
  {e21645c0-ebe2-4580-9f34-3fa0fb716fb4}, ! Handle
  0.9.3;                                  ! Version Identifier

OS:Material,
  {1129846e-17cf-42fc-a3b5-7aa6a27f2f5f}, ! Handle
  Wall Insulation [6],                    ! Name
  MediumRough,                            ! Roughness
  0.0678449,                              ! Thickness {m}
  0.045,                                  ! Conductivity {W/m-K}
  265,                                    ! Density {kg/m3}
  836.8,                                  ! Specific Heat {J/kg-K}
  0.9,                                    ! Thermal Absorptance
  0.7,                                    ! Solar Absorptance
  0.7;                                    ! Visible Absorptance

OS:ComponentCost:LineItem,
  {fea54871-88fc-4255-af2b-aea4882020c1}, ! Handle
  90.1-1999 Nonres B19 Ext Wall Steel-Framed, ! Name
  ,                                       ! Type
  Construction,                           ! Line Item Type
  90.1-1999 Nonres B19 Ext Wall Steel-Framed, ! Item Name
  ,                                       ! Object End Use Key
  ,                                       ! Quantity {dimensionless}
  91.749,                                 ! Material Cost {$}
  CostPerArea;                            ! Material Cost Units

OS:Material,
  {44ad99d5-8fbc-4216-a221-0c7be4c99adc}, ! Handle
  1/2IN Gypsum,                           ! Name
  Smooth,                                 ! Roughness
  0.01271,                                ! Thickness {m}
  0.16,                                   ! Conductivity {W/m-K}
  784.9,                                  ! Density {kg/m3}
  830,                                    ! Specific Heat {J/kg-K}
  0.9,                                    ! Thermal Absorptance
  0.92,                                   ! Solar Absorptance
  0.92;                                   ! Visible Absorptance

OS:Material:NoMass,
  {a9531632-9258-4afd-8e65-f98beca71ef3}, ! Handle
  MAT-SHEATH,                             ! Name
  Rough,                                  ! Roughness
  0.36256,                                ! Thermal Resistance {m2-K/W}
  0.9,                                    ! Thermal Absorptance
  0.7,                                    ! Solar Absorptance
  0.7;                                    ! Visible Absorptance

OS:Construction,
  {7f10f76c-b60b-4577-89a6-16841442a92a}, ! Handle
  90.1-1999 Nonres B19 Ext Wall Steel-Framed, ! Name
  ,                                       ! Surface Rendering Name
  {a9531632-9258-4afd-8e65-f98beca71ef3}, ! Layer 1
  {1129846e-17cf-42fc-a3b5-7aa6a27f2f5f}, ! Layer 2
  {44ad99d5-8fbc-4216-a221-0c7be4c99adc}; ! Layer 3

