
OS:Version,
  {f75fe8af-965e-4a8a-83f2-72b7b78431de}, ! Handle
  0.9.3;                                  ! Version Identifier

OS:Material,
  {6cf1027e-3905-40f8-b638-d9410eb9833f}, ! Handle
  1IN Stucco,                             ! Name
  Smooth,                                 ! Roughness
  0.0253,                                 ! Thickness {m}
  0.6918,                                 ! Conductivity {W/m-K}
  1858,                                   ! Density {kg/m3}
  837,                                    ! Specific Heat {J/kg-K}
  0.9,                                    ! Thermal Absorptance
  0.92,                                   ! Solar Absorptance
  0.92;                                   ! Visible Absorptance

OS:Construction,
  {8c3b686b-a076-4455-86c9-50ccd9477162}, ! Handle
  AEDG-SmOffice 2A Ext Wall Mass,         ! Name
  ,                                       ! Surface Rendering Name
  {6cf1027e-3905-40f8-b638-d9410eb9833f}, ! Layer 1
  {71473e65-9033-4e5a-8d1a-325b693710eb}, ! Layer 2
  {7ad78a20-9feb-4b21-854d-bfabaa4c7806}, ! Layer 3
  {ad72b8d9-fa2c-478e-ae7f-f25d0faeb24c}; ! Layer 4

OS:Material,
  {71473e65-9033-4e5a-8d1a-325b693710eb}, ! Handle
  8IN Concrete HW,                        ! Name
  MediumRough,                            ! Roughness
  0.2033,                                 ! Thickness {m}
  1.7296,                                 ! Conductivity {W/m-K}
  2243,                                   ! Density {kg/m3}
  837,                                    ! Specific Heat {J/kg-K}
  0.9,                                    ! Thermal Absorptance
  0.65,                                   ! Solar Absorptance
  0.65;                                   ! Visible Absorptance

OS:Material,
  {7ad78a20-9feb-4b21-854d-bfabaa4c7806}, ! Handle
  Wall Insulation [5],                    ! Name
  MediumRough,                            ! Roughness
  0.0453274,                              ! Thickness {m}
  0.0432,                                 ! Conductivity {W/m-K}
  91,                                     ! Density {kg/m3}
  837,                                    ! Specific Heat {J/kg-K}
  0.9,                                    ! Thermal Absorptance
  0.5,                                    ! Solar Absorptance
  0.5;                                    ! Visible Absorptance

OS:Material,
  {ad72b8d9-fa2c-478e-ae7f-f25d0faeb24c}, ! Handle
  1/2IN Gypsum,                           ! Name
  Smooth,                                 ! Roughness
  0.01271,                                ! Thickness {m}
  0.16,                                   ! Conductivity {W/m-K}
  784.9,                                  ! Density {kg/m3}
  830,                                    ! Specific Heat {J/kg-K}
  0.9,                                    ! Thermal Absorptance
  0.92,                                   ! Solar Absorptance
  0.92;                                   ! Visible Absorptance

OS:ComponentCost:LineItem,
  {f5dff2b8-2f6a-406b-95ae-6914addbc46b}, ! Handle
  AEDG-SmOffice 2A Ext Wall Mass,         ! Name
  ,                                       ! Type
  Construction,                           ! Line Item Type
  AEDG-SmOffice 2A Ext Wall Mass,         ! Item Name
  ,                                       ! Object End Use Key
  ,                                       ! Quantity {dimensionless}
  61.418,                                 ! Material Cost {$}
  CostPerArea;                            ! Material Cost Units

