
OS:Version,
  {09e61d4a-19f2-4827-b598-e3165855fbab}, ! Handle
  0.9.3;                                  ! Version Identifier

OS:Material,
  {fa31c4ea-6e36-49e0-b4b3-2eb32d9bf79f}, ! Handle
  Roof Insulation [85],                   ! Name
  MediumRough,                            ! Roughness
  0.651634,                               ! Thickness {m}
  0.049,                                  ! Conductivity {W/m-K}
  265,                                    ! Density {kg/m3}
  836.8,                                  ! Specific Heat {J/kg-K}
  0.9,                                    ! Thermal Absorptance
  0.7,                                    ! Solar Absorptance
  0.7;                                    ! Visible Absorptance

OS:Material,
  {41128fca-fdef-4245-a58c-8f6c57e2fca9}, ! Handle
  1/2IN Gypsum,                           ! Name
  Smooth,                                 ! Roughness
  0.01271,                                ! Thickness {m}
  0.16,                                   ! Conductivity {W/m-K}
  784.9,                                  ! Density {kg/m3}
  830,                                    ! Specific Heat {J/kg-K}
  0.9,                                    ! Thermal Absorptance
  0.92,                                   ! Solar Absorptance
  0.92;                                   ! Visible Absorptance

OS:Material,
  {b97454ca-c13e-4a53-a8fd-71718f00c681}, ! Handle
  Wood Shingles,                          ! Name
  VeryRough,                              ! Roughness
  0.0178,                                 ! Thickness {m}
  0.115,                                  ! Conductivity {W/m-K}
  513,                                    ! Density {kg/m3}
  1255,                                   ! Specific Heat {J/kg-K}
  0.9,                                    ! Thermal Absorptance
  0.78,                                   ! Solar Absorptance
  0.78;                                   ! Visible Absorptance

OS:ComponentCost:LineItem,
  {61be17d1-7868-4d73-b378-9ce9e8fadfe7}, ! Handle
  90.1 Constructions Roof Attic and Other R-82.0, ! Name
  ,                                       ! Type
  Construction,                           ! Line Item Type
  90.1 Constructions Roof Attic and Other R-82.0, ! Item Name
  ,                                       ! Object End Use Key
  ,                                       ! Quantity {dimensionless}
  41.867,                                 ! Material Cost {$}
  CostPerArea;                            ! Material Cost Units

OS:Construction,
  {68eaca4f-e665-45a2-8750-b8d2d730af12}, ! Handle
  90.1 Constructions Roof Attic and Other R-82.0, ! Name
  ,                                       ! Surface Rendering Name
  {b97454ca-c13e-4a53-a8fd-71718f00c681}, ! Layer 1
  {1f70dbec-89e1-4b03-81bc-808de5fec3c0}, ! Layer 2
  {fa31c4ea-6e36-49e0-b4b3-2eb32d9bf79f}, ! Layer 3
  {41128fca-fdef-4245-a58c-8f6c57e2fca9}; ! Layer 4

OS:Material,
  {1f70dbec-89e1-4b03-81bc-808de5fec3c0}, ! Handle
  1IN Wood Decking,                       ! Name
  MediumSmooth,                           ! Roughness
  0.0254,                                 ! Thickness {m}
  0.1211,                                 ! Conductivity {W/m-K}
  593,                                    ! Density {kg/m3}
  2510,                                   ! Specific Heat {J/kg-K}
  0.9,                                    ! Thermal Absorptance
  0.78,                                   ! Solar Absorptance
  0.78;                                   ! Visible Absorptance

