
OS:Version,
  {5585beeb-3c3c-4477-bd04-4d549332f459}, ! Handle
  0.9.3;                                  ! Version Identifier

OS:Material,
  {21a81010-22dd-4251-b29f-70a766524674}, ! Handle
  Metal Siding,                           ! Name
  Smooth,                                 ! Roughness
  0.0015,                                 ! Thickness {m}
  44.96,                                  ! Conductivity {W/m-K}
  7688.86,                                ! Density {kg/m3}
  410,                                    ! Specific Heat {J/kg-K}
  0.9,                                    ! Thermal Absorptance
  0.2,                                    ! Solar Absorptance
  0.2;                                    ! Visible Absorptance

OS:Construction,
  {0e0919e2-d2e3-485c-8bda-750ff7bd7bd6}, ! Handle
  90.1-1999 Res B9 Ext Wall Metal Building, ! Name
  ,                                       ! Surface Rendering Name
  {21a81010-22dd-4251-b29f-70a766524674}, ! Layer 1
  {da1f218f-055e-4dd0-875e-fe615f02a1ce}, ! Layer 2
  {a8fedf32-8ac9-45d7-a482-5e7aa2f2a190}; ! Layer 3

OS:Material,
  {da1f218f-055e-4dd0-875e-fe615f02a1ce}, ! Handle
  Wall Insulation,                        ! Name
  MediumRough,                            ! Roughness
  0.0598725,                              ! Thickness {m}
  0.045,                                  ! Conductivity {W/m-K}
  265,                                    ! Density {kg/m3}
  836.8,                                  ! Specific Heat {J/kg-K}
  0.9,                                    ! Thermal Absorptance
  0.7,                                    ! Solar Absorptance
  0.7;                                    ! Visible Absorptance

OS:Material,
  {a8fedf32-8ac9-45d7-a482-5e7aa2f2a190}, ! Handle
  1/2IN Gypsum,                           ! Name
  Smooth,                                 ! Roughness
  0.01271,                                ! Thickness {m}
  0.16,                                   ! Conductivity {W/m-K}
  784.9,                                  ! Density {kg/m3}
  830,                                    ! Specific Heat {J/kg-K}
  0.9,                                    ! Thermal Absorptance
  0.92,                                   ! Solar Absorptance
  0.92;                                   ! Visible Absorptance

OS:ComponentCost:LineItem,
  {2fb9f8ea-fcb9-487d-ab05-3c83a34181b5}, ! Handle
  90.1-1999 Res B9 Ext Wall Metal Building, ! Name
  ,                                       ! Type
  Construction,                           ! Line Item Type
  90.1-1999 Res B9 Ext Wall Metal Building, ! Item Name
  ,                                       ! Object End Use Key
  ,                                       ! Quantity {dimensionless}
  98.78,                                  ! Material Cost {$}
  CostPerArea;                            ! Material Cost Units

