
OS:Version,
  {001c5cd3-ea21-4ded-8082-3606c8bb1e56}, ! Handle
  0.9.3;                                  ! Version Identifier

OS:Construction,
  {261115ad-2117-4695-93c8-2303764dfc41}, ! Handle
  90.1-1999 Res B9 Ext Wall Metal Building, ! Name
  ,                                       ! Surface Rendering Name
  {fd65fee7-6063-4828-bb87-a82abd7f58e4}, ! Layer 1
  {561f5333-2902-4492-8aa7-17d50afdf90a}, ! Layer 2
  {fcdc227f-90f8-4d78-b695-fa0bf1f52c66}; ! Layer 3

OS:Material,
  {fd65fee7-6063-4828-bb87-a82abd7f58e4}, ! Handle
  Metal Siding,                           ! Name
  Smooth,                                 ! Roughness
  0.0015,                                 ! Thickness {m}
  44.96,                                  ! Conductivity {W/m-K}
  7688.86,                                ! Density {kg/m3}
  410,                                    ! Specific Heat {J/kg-K}
  0.9,                                    ! Thermal Absorptance
  0.2,                                    ! Solar Absorptance
  0.2;                                    ! Visible Absorptance

OS:Material,
  {561f5333-2902-4492-8aa7-17d50afdf90a}, ! Handle
  Wall Insulation,                        ! Name
  MediumRough,                            ! Roughness
  0.0598725,                              ! Thickness {m}
  0.045,                                  ! Conductivity {W/m-K}
  265,                                    ! Density {kg/m3}
  836.8,                                  ! Specific Heat {J/kg-K}
  0.9,                                    ! Thermal Absorptance
  0.7,                                    ! Solar Absorptance
  0.7;                                    ! Visible Absorptance

OS:Material,
  {fcdc227f-90f8-4d78-b695-fa0bf1f52c66}, ! Handle
  1/2IN Gypsum,                           ! Name
  Smooth,                                 ! Roughness
  0.01271,                                ! Thickness {m}
  0.16,                                   ! Conductivity {W/m-K}
  784.9,                                  ! Density {kg/m3}
  830,                                    ! Specific Heat {J/kg-K}
  0.9,                                    ! Thermal Absorptance
  0.92,                                   ! Solar Absorptance
  0.92;                                   ! Visible Absorptance

OS:ComponentCost:LineItem,
  {4db94611-5d89-4918-8014-46479a40ff29}, ! Handle
  90.1-1999 Res B9 Ext Wall Metal Building, ! Name
  ,                                       ! Type
  Construction,                           ! Line Item Type
  90.1-1999 Res B9 Ext Wall Metal Building, ! Item Name
  ,                                       ! Object End Use Key
  ,                                       ! Quantity {dimensionless}
  98.78,                                  ! Material Cost {$}
  CostPerArea;                            ! Material Cost Units

OS:ComponentData,
  {de5c9a33-fc28-4956-98e0-5f8d59fe3be3}, ! Handle
  Component Data 1,                       ! Name
  {1e08d4d1-5336-4381-a2df-3cec5f8e9562}, ! UUID
  {e2f8dd05-db5b-425e-ae20-300caba9533a}, ! Version UUID
  1363981201,                             ! Creation Timestamp
  1363981201,                             ! Version Timestamp
  {261115ad-2117-4695-93c8-2303764dfc41}, ! Name of Object 1
  {fd65fee7-6063-4828-bb87-a82abd7f58e4}, ! Name of Object 2
  {561f5333-2902-4492-8aa7-17d50afdf90a}, ! Name of Object 3
  {fcdc227f-90f8-4d78-b695-fa0bf1f52c66}, ! Name of Object 4
  {4db94611-5d89-4918-8014-46479a40ff29}; ! Name of Object 5

