
OS:Version,
  {4839b45c-1af9-42fa-81f5-408b3281c4cd}, !- Handle
  1.1.0;                                  !- Version Identifier

OS:Construction,
  {6eebc4cc-7607-4a2e-99d2-f68b71a7cc89}, !- Handle
  Sgl Ref-C-H Tint 6mm,                   !- Name
  ,                                       !- Surface Rendering Name
  {4c88bce6-6037-42d7-9c85-987b129a4bda}; !- Layer 1

OS:WindowMaterial:Glazing,
  {4c88bce6-6037-42d7-9c85-987b129a4bda}, !- Handle
  REF C TINT HI 6MM,                      !- Name
  SpectralAverage,                        !- Optical Data Type
  ,                                       !- Window Glass Spectral Data Set Name
  0.006,                                  !- Thickness {m}
  0.12,                                   !- Solar Transmittance at Normal Incidence
  0.09,                                   !- Front Side Solar Reflectance at Normal Incidence
  0.39,                                   !- Back Side Solar Reflectance at Normal Incidence
  0.13,                                   !- Visible Transmittance at Normal Incidence
  0.09,                                   !- Front Side Visible Reflectance at Normal Incidence
  0.35,                                   !- Back Side Visible Reflectance at Normal Incidence
  0,                                      !- Infrared Transmittance at Normal Incidence
  0.84,                                   !- Front Side Infrared Hemispherical Emissivity
  0.55,                                   !- Back Side Infrared Hemispherical Emissivity
  0.9;                                    !- Conductivity {W/m-K}

OS:ComponentData,
  {68ad53f2-8b81-4c67-9572-703dec15e39e}, !- Handle
  Component Data 1,                       !- Name
  {3733539f-66ec-4cd3-9c2e-b8105f30d6a6}, !- UUID
  {6197808f-d89b-47e7-9552-99b183e0d3f5}, !- Version UUID
  1384380200,                             !- Creation Timestamp
  1384380200,                             !- Version Timestamp
  {6eebc4cc-7607-4a2e-99d2-f68b71a7cc89}, !- Name of Object 1
  {4c88bce6-6037-42d7-9c85-987b129a4bda}; !- Name of Object 2

