
OS:Version,
  {ee3a2d5b-ba53-4131-ac02-94252bd7ac43}, !- Handle
  1.1.0;                                  !- Version Identifier

OS:Construction,
  {4f8394d3-a0b5-4f18-a3cf-10fb7f114d28}, !- Handle
  Sgl Ref-C-H Tint 6mm,                   !- Name
  ,                                       !- Surface Rendering Name
  {37627ca2-623a-4f3a-a168-31f39869c76e}; !- Layer 1

OS:WindowMaterial:Glazing,
  {37627ca2-623a-4f3a-a168-31f39869c76e}, !- Handle
  REF C TINT HI 6MM,                      !- Name
  SpectralAverage,                        !- Optical Data Type
  ,                                       !- Window Glass Spectral Data Set Name
  0.006,                                  !- Thickness {m}
  0.12,                                   !- Solar Transmittance at Normal Incidence
  0.09,                                   !- Front Side Solar Reflectance at Normal Incidence
  0.39,                                   !- Back Side Solar Reflectance at Normal Incidence
  0.13,                                   !- Visible Transmittance at Normal Incidence
  0.09,                                   !- Front Side Visible Reflectance at Normal Incidence
  0.35,                                   !- Back Side Visible Reflectance at Normal Incidence
  0,                                      !- Infrared Transmittance at Normal Incidence
  0.84,                                   !- Front Side Infrared Hemispherical Emissivity
  0.55,                                   !- Back Side Infrared Hemispherical Emissivity
  0.9;                                    !- Conductivity {W/m-K}

