
OS:Version,
  {29fd45a6-e50c-48b3-8b04-d80dc8ffb4e0}, ! Handle
  0.9.3;                                  ! Version Identifier

OS:Construction,
  {5d90d260-be27-44a0-a4f3-9483389f2f74}, ! Handle
  189.1-2009 Res 3A Skylight without Curb, ! Name
  ,                                       ! Surface Rendering Name
  {e6feafd0-b42e-445f-b3cf-813125dc6021}; ! Layer 1

OS:WindowMaterial:Glazing,
  {e6feafd0-b42e-445f-b3cf-813125dc6021}, ! Handle
  Theoretical Glass [203],                ! Name
  SpectralAverage,                        ! Optical Data Type
  ,                                       ! Window Glass Spectral Data Set Name
  0.003,                                  ! Thickness {m}
  0.171679,                               ! Solar Transmittance at Normal Incidence
  0.778321,                               ! Front Side Solar Reflectance at Normal Incidence
  0.778321,                               ! Back Side Solar Reflectance at Normal Incidence
  0.24137,                                ! Visible Transmittance at Normal Incidence
  0.70863,                                ! Front Side Visible Reflectance at Normal Incidence
  0.70863,                                ! Back Side Visible Reflectance at Normal Incidence
  0,                                      ! Infrared Transmittance at Normal Incidence
  0.9,                                    ! Front Side Infrared Hemispherical Emissivity
  0.9,                                    ! Back Side Infrared Hemispherical Emissivity
  0.0133144;                              ! Conductivity {W/m-K}

OS:ComponentCost:LineItem,
  {163c4dd7-dda8-45f1-aae0-9c5889630bbf}, ! Handle
  189.1-2009 Res 3A Skylight without Curb, ! Name
  ,                                       ! Type
  Construction,                           ! Line Item Type
  189.1-2009 Res 3A Skylight without Curb, ! Item Name
  ,                                       ! Object End Use Key
  ,                                       ! Quantity {dimensionless}
  618.006,                                ! Material Cost {$}
  CostPerArea;                            ! Material Cost Units

OS:ComponentData,
  {f118d4bf-07fc-45b6-942d-70081fdaed56}, ! Handle
  Component Data 1,                       ! Name
  {1361826f-22ad-4b31-bb4f-8376522b7088}, ! UUID
  {2f90e760-8a69-47fb-bda8-519cd818b929}, ! Version UUID
  1363980969,                             ! Creation Timestamp
  1363980969,                             ! Version Timestamp
  {5d90d260-be27-44a0-a4f3-9483389f2f74}, ! Name of Object 1
  {e6feafd0-b42e-445f-b3cf-813125dc6021}, ! Name of Object 2
  {163c4dd7-dda8-45f1-aae0-9c5889630bbf}; ! Name of Object 3

