
OS:Version,
  {72f4e315-7c2e-4ff5-8301-2634a1ce2705}, ! Handle
  0.9.3;                                  ! Version Identifier

OS:Construction,
  {6e0d236d-3b00-429a-93b7-e7c6ef13f1bc}, ! Handle
  189.1-2009 Res 3A Skylight without Curb, ! Name
  ,                                       ! Surface Rendering Name
  {7ddd1291-d2bb-469c-a237-447d4e56a56a}; ! Layer 1

OS:WindowMaterial:Glazing,
  {7ddd1291-d2bb-469c-a237-447d4e56a56a}, ! Handle
  Theoretical Glass [203],                ! Name
  SpectralAverage,                        ! Optical Data Type
  ,                                       ! Window Glass Spectral Data Set Name
  0.003,                                  ! Thickness {m}
  0.171679,                               ! Solar Transmittance at Normal Incidence
  0.778321,                               ! Front Side Solar Reflectance at Normal Incidence
  0.778321,                               ! Back Side Solar Reflectance at Normal Incidence
  0.24137,                                ! Visible Transmittance at Normal Incidence
  0.70863,                                ! Front Side Visible Reflectance at Normal Incidence
  0.70863,                                ! Back Side Visible Reflectance at Normal Incidence
  0,                                      ! Infrared Transmittance at Normal Incidence
  0.9,                                    ! Front Side Infrared Hemispherical Emissivity
  0.9,                                    ! Back Side Infrared Hemispherical Emissivity
  0.0133144;                              ! Conductivity {W/m-K}

OS:ComponentCost:LineItem,
  {d7f94f21-18f9-42f9-a5e3-97fd8dcbec03}, ! Handle
  189.1-2009 Res 3A Skylight without Curb, ! Name
  ,                                       ! Type
  Construction,                           ! Line Item Type
  189.1-2009 Res 3A Skylight without Curb, ! Item Name
  ,                                       ! Object End Use Key
  ,                                       ! Quantity {dimensionless}
  618.006,                                ! Material Cost {$}
  CostPerArea;                            ! Material Cost Units

