
OS:Version,
  {7639641c-1493-4849-903c-012e0dd038bb}, ! Handle
  0.9.3;                                  ! Version Identifier

OS:Material,
  {fd3715b2-dee3-4789-865c-7cc6042f035e}, ! Handle
  Wall Insulation [159],                  ! Name
  MediumRough,                            ! Roughness
  0.0812,                                 ! Thickness {m}
  0.045,                                  ! Conductivity {W/m-K}
  265,                                    ! Density {kg/m3}
  836.8,                                  ! Specific Heat {J/kg-K}
  0.9,                                    ! Thermal Absorptance
  0.7,                                    ! Solar Absorptance
  0.7;                                    ! Visible Absorptance

OS:Material:NoMass,
  {3f19be4e-a15a-4d4d-9387-717d73d66866}, ! Handle
  MAT-SHEATH,                             ! Name
  Rough,                                  ! Roughness
  0.36256,                                ! Thermal Resistance {m2-K/W}
  0.9,                                    ! Thermal Absorptance
  0.7,                                    ! Solar Absorptance
  0.7;                                    ! Visible Absorptance

OS:Material,
  {7d1e62ca-1dc4-4622-b8d3-78d4ba0ef826}, ! Handle
  1/2IN Gypsum,                           ! Name
  Smooth,                                 ! Roughness
  0.01271,                                ! Thickness {m}
  0.16,                                   ! Conductivity {W/m-K}
  784.9,                                  ! Density {kg/m3}
  830,                                    ! Specific Heat {J/kg-K}
  0.9,                                    ! Thermal Absorptance
  0.92,                                   ! Solar Absorptance
  0.92;                                   ! Visible Absorptance

OS:ComponentCost:LineItem,
  {48bc65a6-6d4e-416c-b41b-580a175f37de}, ! Handle
  Title 24-2008 Nonres 15 Ext Wall Steel-Framed, ! Name
  ,                                       ! Type
  Construction,                           ! Line Item Type
  Title 24-2008 Nonres 15 Ext Wall Steel-Framed, ! Item Name
  ,                                       ! Object End Use Key
  ,                                       ! Quantity {dimensionless}
  155.805,                                ! Material Cost {$}
  CostPerArea;                            ! Material Cost Units

OS:Construction,
  {0bc68ddf-038d-4e22-9f58-b56da066852b}, ! Handle
  Title 24-2008 Nonres 15 Ext Wall Steel-Framed, ! Name
  ,                                       ! Surface Rendering Name
  {3f19be4e-a15a-4d4d-9387-717d73d66866}, ! Layer 1
  {fd3715b2-dee3-4789-865c-7cc6042f035e}, ! Layer 2
  {7d1e62ca-1dc4-4622-b8d3-78d4ba0ef826}; ! Layer 3

