
OS:Version,
  {a68a714c-facd-4a75-b93a-f0032878ea7d}, ! Handle
  0.9.3;                                  ! Version Identifier

OS:ComponentCost:LineItem,
  {5d03446f-97f7-40b6-bf93-4c9752aa4921}, ! Handle
  90.1-2001 Res B20 Ext Wall Wood-Framed and Other, ! Name
  ,                                       ! Type
  Construction,                           ! Line Item Type
  90.1-2001 Res B20 Ext Wall Wood-Framed and Other, ! Item Name
  ,                                       ! Object End Use Key
  ,                                       ! Quantity {dimensionless}
  77.608,                                 ! Material Cost {$}
  CostPerArea;                            ! Material Cost Units

OS:Material,
  {77372951-15f2-43c5-a79d-eb2f95d884f1}, ! Handle
  Wall Insulation [11],                   ! Name
  MediumRough,                            ! Roughness
  0.109279,                               ! Thickness {m}
  0.045,                                  ! Conductivity {W/m-K}
  265,                                    ! Density {kg/m3}
  836.8,                                  ! Specific Heat {J/kg-K}
  0.9,                                    ! Thermal Absorptance
  0.7,                                    ! Solar Absorptance
  0.7;                                    ! Visible Absorptance

OS:Construction,
  {0c881c12-1d2e-41bc-8e86-04acf036f12b}, ! Handle
  90.1-2001 Res B20 Ext Wall Wood-Framed and Other, ! Name
  ,                                       ! Surface Rendering Name
  {8b66d2d2-bd7c-4e04-ae02-d0b904a98dfb}, ! Layer 1
  {77372951-15f2-43c5-a79d-eb2f95d884f1}, ! Layer 2
  {de75fcb9-11f2-4374-b39d-d692812f9435}; ! Layer 3

OS:Material,
  {8b66d2d2-bd7c-4e04-ae02-d0b904a98dfb}, ! Handle
  Wood Siding,                            ! Name
  MediumSmooth,                           ! Roughness
  0.01,                                   ! Thickness {m}
  0.11,                                   ! Conductivity {W/m-K}
  544.62,                                 ! Density {kg/m3}
  1210,                                   ! Specific Heat {J/kg-K}
  0.9,                                    ! Thermal Absorptance
  0.78,                                   ! Solar Absorptance
  0.78;                                   ! Visible Absorptance

OS:Material,
  {de75fcb9-11f2-4374-b39d-d692812f9435}, ! Handle
  1/2IN Gypsum,                           ! Name
  Smooth,                                 ! Roughness
  0.01271,                                ! Thickness {m}
  0.16,                                   ! Conductivity {W/m-K}
  784.9,                                  ! Density {kg/m3}
  830,                                    ! Specific Heat {J/kg-K}
  0.9,                                    ! Thermal Absorptance
  0.92,                                   ! Solar Absorptance
  0.92;                                   ! Visible Absorptance

