
OS:Version,
  {d07d0b17-83e4-4d32-a7c5-328d3a2dd693}, ! Handle
  0.9.3;                                  ! Version Identifier

OS:Construction,
  {048c9198-ce16-4e5c-9a69-94ffc03875dc}, ! Handle
  Title 24-2008 Nonres 3 Skylight Plastic Skylight with Curb, ! Name
  ,                                       ! Surface Rendering Name
  {75293726-6068-40c2-86a7-b26e7868f44a}; ! Layer 1

OS:WindowMaterial:Glazing,
  {75293726-6068-40c2-86a7-b26e7868f44a}, ! Handle
  Theoretical Glass [674],                ! Name
  SpectralAverage,                        ! Optical Data Type
  ,                                       ! Window Glass Spectral Data Set Name
  0.003,                                  ! Thickness {m}
  0.676633,                               ! Solar Transmittance at Normal Incidence
  0.273367,                               ! Front Side Solar Reflectance at Normal Incidence
  0.273367,                               ! Back Side Solar Reflectance at Normal Incidence
  0.689609,                               ! Visible Transmittance at Normal Incidence
  0.260391,                               ! Front Side Visible Reflectance at Normal Incidence
  0.260391,                               ! Back Side Visible Reflectance at Normal Incidence
  0,                                      ! Infrared Transmittance at Normal Incidence
  0.91,                                   ! Front Side Infrared Hemispherical Emissivity
  0.91,                                   ! Back Side Infrared Hemispherical Emissivity
  0.387053;                               ! Conductivity {W/m-K}

OS:ComponentCost:LineItem,
  {db4e4031-d26d-4fa9-8cae-eea2dc3e8ba9}, ! Handle
  Title 24-2008 Nonres 3 Skylight Plastic Skylight with Curb, ! Name
  ,                                       ! Type
  Construction,                           ! Line Item Type
  Title 24-2008 Nonres 3 Skylight Plastic Skylight with Curb, ! Item Name
  ,                                       ! Object End Use Key
  ,                                       ! Quantity {dimensionless}
  480.601,                                ! Material Cost {$}
  CostPerArea;                            ! Material Cost Units

