
OS:Version,
  {a4528e48-9d11-4987-8132-1404fc98bbe6}, ! Handle
  0.9.3;                                  ! Version Identifier

OS:Construction,
  {50ddf14b-1c11-4faa-a713-6918a45be0b2}, ! Handle
  90.1-1999 Nonres B18 Skylight without Curb, ! Name
  ,                                       ! Surface Rendering Name
  {659a746d-c5a5-4cc9-a1a7-9eb6d5cde4f0}; ! Layer 1

OS:WindowMaterial:Glazing,
  {659a746d-c5a5-4cc9-a1a7-9eb6d5cde4f0}, ! Handle
  Theoretical Glass [38],                 ! Name
  SpectralAverage,                        ! Optical Data Type
  ,                                       ! Window Glass Spectral Data Set Name
  0.003,                                  ! Thickness {m}
  0.670707,                               ! Solar Transmittance at Normal Incidence
  0.279293,                               ! Front Side Solar Reflectance at Normal Incidence
  0.279293,                               ! Back Side Solar Reflectance at Normal Incidence
  0.754945,                               ! Visible Transmittance at Normal Incidence
  0.195055,                               ! Front Side Visible Reflectance at Normal Incidence
  0.195055,                               ! Back Side Visible Reflectance at Normal Incidence
  0,                                      ! Infrared Transmittance at Normal Incidence
  0.9,                                    ! Front Side Infrared Hemispherical Emissivity
  0.9,                                    ! Back Side Infrared Hemispherical Emissivity
  0.03026;                                ! Conductivity {W/m-K}

OS:ComponentCost:LineItem,
  {d35f47a8-9f16-487c-bc48-57e04f348537}, ! Handle
  90.1-1999 Nonres B18 Skylight without Curb, ! Name
  ,                                       ! Type
  Construction,                           ! Line Item Type
  90.1-1999 Nonres B18 Skylight without Curb, ! Item Name
  ,                                       ! Object End Use Key
  ,                                       ! Quantity {dimensionless}
  502.229,                                ! Material Cost {$}
  CostPerArea;                            ! Material Cost Units

