
OS:Version,
  {eb836a38-9202-4a5b-b4e7-e22e5210c6a9}, ! Handle
  0.9.3;                                  ! Version Identifier

OS:Construction,
  {e699570c-472e-41c6-86aa-d12c6ec1cc42}, ! Handle
  90.1-1999 Nonres B24 Skylight without Curb, ! Name
  ,                                       ! Surface Rendering Name
  {a23ba1a0-2f79-4e3a-996c-eddd8696d041}; ! Layer 1

OS:WindowMaterial:Glazing,
  {a23ba1a0-2f79-4e3a-996c-eddd8696d041}, ! Handle
  Theoretical Glass [45],                 ! Name
  SpectralAverage,                        ! Optical Data Type
  ,                                       ! Window Glass Spectral Data Set Name
  0.003,                                  ! Thickness {m}
  0.482092,                               ! Solar Transmittance at Normal Incidence
  0.467908,                               ! Front Side Solar Reflectance at Normal Incidence
  0.467908,                               ! Back Side Solar Reflectance at Normal Incidence
  0.529698,                               ! Visible Transmittance at Normal Incidence
  0.420302,                               ! Front Side Visible Reflectance at Normal Incidence
  0.420302,                               ! Back Side Visible Reflectance at Normal Incidence
  0,                                      ! Infrared Transmittance at Normal Incidence
  0.9,                                    ! Front Side Infrared Hemispherical Emissivity
  0.9,                                    ! Back Side Infrared Hemispherical Emissivity
  0.0205762;                              ! Conductivity {W/m-K}

OS:ComponentCost:LineItem,
  {b60d9515-9ba7-44f5-847b-1a5256ced78a}, ! Handle
  90.1-1999 Nonres B24 Skylight without Curb, ! Name
  ,                                       ! Type
  Construction,                           ! Line Item Type
  90.1-1999 Nonres B24 Skylight without Curb, ! Item Name
  ,                                       ! Object End Use Key
  ,                                       ! Quantity {dimensionless}
  524.932,                                ! Material Cost {$}
  CostPerArea;                            ! Material Cost Units

OS:ComponentData,
  {f50f7c4e-5975-42b9-b493-eb8194699991}, ! Handle
  Component Data 1,                       ! Name
  {16eaf088-31c6-4bd1-8013-539637a36a02}, ! UUID
  {cd2f4766-bda4-45a6-9fe2-ed61c2e8487e}, ! Version UUID
  1363981151,                             ! Creation Timestamp
  1363981151,                             ! Version Timestamp
  {e699570c-472e-41c6-86aa-d12c6ec1cc42}, ! Name of Object 1
  {a23ba1a0-2f79-4e3a-996c-eddd8696d041}, ! Name of Object 2
  {b60d9515-9ba7-44f5-847b-1a5256ced78a}; ! Name of Object 3

