
OS:Version,
  {8843052d-1bc0-4ae7-8407-ded304a43fcc}, ! Handle
  0.9.3;                                  ! Version Identifier

OS:Construction,
  {1ec67aa8-3780-4eaa-a2a8-e7c0ecdc5df1}, ! Handle
  90.1-1999 Nonres B24 Skylight without Curb, ! Name
  ,                                       ! Surface Rendering Name
  {aeb66bcc-8480-4068-a199-cbc012fd9cd9}; ! Layer 1

OS:WindowMaterial:Glazing,
  {aeb66bcc-8480-4068-a199-cbc012fd9cd9}, ! Handle
  Theoretical Glass [45],                 ! Name
  SpectralAverage,                        ! Optical Data Type
  ,                                       ! Window Glass Spectral Data Set Name
  0.003,                                  ! Thickness {m}
  0.482092,                               ! Solar Transmittance at Normal Incidence
  0.467908,                               ! Front Side Solar Reflectance at Normal Incidence
  0.467908,                               ! Back Side Solar Reflectance at Normal Incidence
  0.529698,                               ! Visible Transmittance at Normal Incidence
  0.420302,                               ! Front Side Visible Reflectance at Normal Incidence
  0.420302,                               ! Back Side Visible Reflectance at Normal Incidence
  0,                                      ! Infrared Transmittance at Normal Incidence
  0.9,                                    ! Front Side Infrared Hemispherical Emissivity
  0.9,                                    ! Back Side Infrared Hemispherical Emissivity
  0.0205762;                              ! Conductivity {W/m-K}

OS:ComponentCost:LineItem,
  {82bb0616-b0cc-4bc0-a5e6-e7e68a6e05ea}, ! Handle
  90.1-1999 Nonres B24 Skylight without Curb, ! Name
  ,                                       ! Type
  Construction,                           ! Line Item Type
  90.1-1999 Nonres B24 Skylight without Curb, ! Item Name
  ,                                       ! Object End Use Key
  ,                                       ! Quantity {dimensionless}
  524.932,                                ! Material Cost {$}
  CostPerArea;                            ! Material Cost Units

