
OS:Version,
  {5012323b-97f4-4903-8052-54f2004a0587}, ! Handle
  0.9.3;                                  ! Version Identifier

OS:ComponentCost:LineItem,
  {c2e62b68-a62d-41cf-94c4-45001e97e924}, ! Handle
  189.1-2009 Res 5B Window Metal framing entrance door, ! Name
  ,                                       ! Type
  Construction,                           ! Line Item Type
  189.1-2009 Res 5B Window Metal framing entrance door, ! Item Name
  ,                                       ! Object End Use Key
  ,                                       ! Quantity {dimensionless}
  512.02,                                 ! Material Cost {$}
  CostPerArea;                            ! Material Cost Units

OS:Construction,
  {6276bab2-5db8-4c11-99fe-0665b9d71646}, ! Handle
  189.1-2009 Res 5B Window Metal framing entrance door, ! Name
  ,                                       ! Surface Rendering Name
  {821f81b3-36ec-42b9-b726-a4cd61dab198}; ! Layer 1

OS:WindowMaterial:Glazing,
  {821f81b3-36ec-42b9-b726-a4cd61dab198}, ! Handle
  Theoretical Glass [215],                ! Name
  SpectralAverage,                        ! Optical Data Type
  ,                                       ! Window Glass Spectral Data Set Name
  0.003,                                  ! Thickness {m}
  0.382681,                               ! Solar Transmittance at Normal Incidence
  0.567319,                               ! Front Side Solar Reflectance at Normal Incidence
  0.567319,                               ! Back Side Solar Reflectance at Normal Incidence
  0.507883,                               ! Visible Transmittance at Normal Incidence
  0.442117,                               ! Front Side Visible Reflectance at Normal Incidence
  0.442117,                               ! Back Side Visible Reflectance at Normal Incidence
  0,                                      ! Infrared Transmittance at Normal Incidence
  0.9,                                    ! Front Side Infrared Hemispherical Emissivity
  0.9,                                    ! Back Side Infrared Hemispherical Emissivity
  0.0336861;                              ! Conductivity {W/m-K}

