
OS:Version,
  {aafce20a-edc8-43b2-a6e3-4020bcdef355}, ! Handle
  0.9.3;                                  ! Version Identifier

OS:Construction,
  {a0628beb-7af5-4027-9cc8-826aacc9c4c8}, ! Handle
  AEDG-SmOffice 4B Ext Slab Unheated - 8in Slab with Carpet, ! Name
  ,                                       ! Surface Rendering Name
  {5c8206da-d60f-474d-b027-d7469a7e9996}, ! Layer 1
  {52ef8a0c-60b8-4a0d-91be-5e0ab5572f15}; ! Layer 2

OS:Material,
  {5c8206da-d60f-474d-b027-d7469a7e9996}, ! Handle
  MAT-CC05 8 HW CONCRETE,                 ! Name
  Rough,                                  ! Roughness
  0.20321,                                ! Thickness {m}
  1.311,                                  ! Conductivity {W/m-K}
  2240,                                   ! Density {kg/m3}
  836.8,                                  ! Specific Heat {J/kg-K}
  0.9,                                    ! Thermal Absorptance
  0.7,                                    ! Solar Absorptance
  0.7;                                    ! Visible Absorptance

OS:Material:NoMass,
  {52ef8a0c-60b8-4a0d-91be-5e0ab5572f15}, ! Handle
  CP02 CARPET PAD,                        ! Name
  VeryRough,                              ! Roughness
  0.21648,                                ! Thermal Resistance {m2-K/W}
  0.9,                                    ! Thermal Absorptance
  0.7,                                    ! Solar Absorptance
  0.8;                                    ! Visible Absorptance

OS:ComponentCost:LineItem,
  {3365cc6f-83bf-4464-9716-9f2d4320206e}, ! Handle
  AEDG-SmOffice 4B Ext Slab Unheated - 8in Slab with Carpet, ! Name
  ,                                       ! Type
  Construction,                           ! Line Item Type
  AEDG-SmOffice 4B Ext Slab Unheated - 8in Slab with Carpet, ! Item Name
  ,                                       ! Object End Use Key
  ,                                       ! Quantity {dimensionless}
  45.52,                                  ! Material Cost {$}
  CostPerArea;                            ! Material Cost Units

OS:ComponentData,
  {27cda72e-904f-4e97-b7bd-74af815dcb0f}, ! Handle
  Component Data 1,                       ! Name
  {7ef6b2a7-8889-4702-a2c2-dae3753d335f}, ! UUID
  {85780347-7780-4d69-9107-d772c05ec575}, ! Version UUID
  1363981951,                             ! Creation Timestamp
  1363981951,                             ! Version Timestamp
  {a0628beb-7af5-4027-9cc8-826aacc9c4c8}, ! Name of Object 1
  {5c8206da-d60f-474d-b027-d7469a7e9996}, ! Name of Object 2
  {52ef8a0c-60b8-4a0d-91be-5e0ab5572f15}, ! Name of Object 3
  {3365cc6f-83bf-4464-9716-9f2d4320206e}; ! Name of Object 4

