
OS:Version,
  {18c3c3d1-ae80-4714-b950-2987a12c7639}, ! Handle
  0.9.3;                                  ! Version Identifier

OS:Material,
  {826ddf4b-077b-4a9b-a522-9a11cd9463f9}, ! Handle
  MAT-CC05 8 HW CONCRETE,                 ! Name
  Rough,                                  ! Roughness
  0.20321,                                ! Thickness {m}
  1.311,                                  ! Conductivity {W/m-K}
  2240,                                   ! Density {kg/m3}
  836.8,                                  ! Specific Heat {J/kg-K}
  0.9,                                    ! Thermal Absorptance
  0.7,                                    ! Solar Absorptance
  0.7;                                    ! Visible Absorptance

OS:ComponentCost:LineItem,
  {28ca8b69-a861-4ef4-adcf-528e5099a42a}, ! Handle
  AEDG-SmOffice 4B Ext Slab Unheated - 8in Slab with Carpet, ! Name
  ,                                       ! Type
  Construction,                           ! Line Item Type
  AEDG-SmOffice 4B Ext Slab Unheated - 8in Slab with Carpet, ! Item Name
  ,                                       ! Object End Use Key
  ,                                       ! Quantity {dimensionless}
  45.52,                                  ! Material Cost {$}
  CostPerArea;                            ! Material Cost Units

OS:Construction,
  {5e0bc43f-fdfe-46dc-8fd3-381720bd1215}, ! Handle
  AEDG-SmOffice 4B Ext Slab Unheated - 8in Slab with Carpet, ! Name
  ,                                       ! Surface Rendering Name
  {826ddf4b-077b-4a9b-a522-9a11cd9463f9}, ! Layer 1
  {0b797e5a-da5a-4916-a074-71d9b091730a}; ! Layer 2

OS:Material:NoMass,
  {0b797e5a-da5a-4916-a074-71d9b091730a}, ! Handle
  CP02 CARPET PAD,                        ! Name
  VeryRough,                              ! Roughness
  0.21648,                                ! Thermal Resistance {m2-K/W}
  0.9,                                    ! Thermal Absorptance
  0.7,                                    ! Solar Absorptance
  0.8;                                    ! Visible Absorptance

