
OS:Version,
  {1669f6d7-81c8-4d40-8afc-616939b5799e}, ! Handle
  0.9.3;                                  ! Version Identifier

OS:Construction,
  {88cb38b2-c020-4d36-aab4-e119dc79509d}, ! Handle
  Title 24-2008 Nonres 9 Ext Wall Wood-Framed and Other, ! Name
  ,                                       ! Surface Rendering Name
  {f867834c-4bc0-444c-865e-a8f946aef924}, ! Layer 1
  {b9a3cbe8-7aa1-43e7-b986-93040e6450c1}, ! Layer 2
  {46f7e7df-a4a2-41af-89e2-13287cf8d4a7}; ! Layer 3

OS:Material,
  {f867834c-4bc0-444c-865e-a8f946aef924}, ! Handle
  Wood Siding,                            ! Name
  MediumSmooth,                           ! Roughness
  0.01,                                   ! Thickness {m}
  0.11,                                   ! Conductivity {W/m-K}
  544.62,                                 ! Density {kg/m3}
  1210,                                   ! Specific Heat {J/kg-K}
  0.9,                                    ! Thermal Absorptance
  0.78,                                   ! Solar Absorptance
  0.78;                                   ! Visible Absorptance

OS:Material,
  {b9a3cbe8-7aa1-43e7-b986-93040e6450c1}, ! Handle
  Wall Insulation [159],                  ! Name
  MediumRough,                            ! Roughness
  0.0812,                                 ! Thickness {m}
  0.045,                                  ! Conductivity {W/m-K}
  265,                                    ! Density {kg/m3}
  836.8,                                  ! Specific Heat {J/kg-K}
  0.9,                                    ! Thermal Absorptance
  0.7,                                    ! Solar Absorptance
  0.7;                                    ! Visible Absorptance

OS:Material,
  {46f7e7df-a4a2-41af-89e2-13287cf8d4a7}, ! Handle
  1/2IN Gypsum,                           ! Name
  Smooth,                                 ! Roughness
  0.01271,                                ! Thickness {m}
  0.16,                                   ! Conductivity {W/m-K}
  784.9,                                  ! Density {kg/m3}
  830,                                    ! Specific Heat {J/kg-K}
  0.9,                                    ! Thermal Absorptance
  0.92,                                   ! Solar Absorptance
  0.92;                                   ! Visible Absorptance

OS:ComponentCost:LineItem,
  {295a0034-a6e6-4ae1-8a45-30d9464d7336}, ! Handle
  Title 24-2008 Nonres 9 Ext Wall Wood-Framed and Other, ! Name
  ,                                       ! Type
  Construction,                           ! Line Item Type
  Title 24-2008 Nonres 9 Ext Wall Wood-Framed and Other, ! Item Name
  ,                                       ! Object End Use Key
  ,                                       ! Quantity {dimensionless}
  140.526,                                ! Material Cost {$}
  CostPerArea;                            ! Material Cost Units

OS:ComponentData,
  {b13a8fc8-cba2-4c6b-920e-297a40c81bc8}, ! Handle
  Component Data 1,                       ! Name
  {7aa7d4db-0401-44df-8a2b-cae4708c9225}, ! UUID
  {2fb27b09-15ee-479a-ba6d-a0986799cf16}, ! Version UUID
  1363982053,                             ! Creation Timestamp
  1363982053,                             ! Version Timestamp
  {88cb38b2-c020-4d36-aab4-e119dc79509d}, ! Name of Object 1
  {f867834c-4bc0-444c-865e-a8f946aef924}, ! Name of Object 2
  {b9a3cbe8-7aa1-43e7-b986-93040e6450c1}, ! Name of Object 3
  {46f7e7df-a4a2-41af-89e2-13287cf8d4a7}, ! Name of Object 4
  {295a0034-a6e6-4ae1-8a45-30d9464d7336}; ! Name of Object 5

