
OS:Version,
  {920c87ea-c1e8-401f-a571-88d9eaf5bb03}, ! Handle
  0.9.3;                                  ! Version Identifier

OS:Construction,
  {a1d6c701-edf2-4464-8152-2b5813334f0a}, ! Handle
  90.1-2001 Res B24 Roof Metal Building,  ! Name
  ,                                       ! Surface Rendering Name
  {06d34036-3ee3-49a8-be78-a92dd427cda1}, ! Layer 1
  {7d87c046-0c31-4c42-a1e6-70a1661a0e69}; ! Layer 2

OS:Material,
  {06d34036-3ee3-49a8-be78-a92dd427cda1}, ! Handle
  Metal Roofing,                          ! Name
  MediumSmooth,                           ! Roughness
  0.001524,                               ! Thickness {m}
  45.006,                                 ! Conductivity {W/m-K}
  7680,                                   ! Density {kg/m3}
  418.4,                                  ! Specific Heat {J/kg-K}
  0.9,                                    ! Thermal Absorptance
  0.7,                                    ! Solar Absorptance
  0.3;                                    ! Visible Absorptance

OS:Material,
  {7d87c046-0c31-4c42-a1e6-70a1661a0e69}, ! Handle
  Roof Insulation [8],                    ! Name
  MediumRough,                            ! Roughness
  0.166908,                               ! Thickness {m}
  0.049,                                  ! Conductivity {W/m-K}
  265,                                    ! Density {kg/m3}
  836.8,                                  ! Specific Heat {J/kg-K}
  0.9,                                    ! Thermal Absorptance
  0.7,                                    ! Solar Absorptance
  0.7;                                    ! Visible Absorptance

OS:ComponentCost:LineItem,
  {51a245ab-f013-43f0-8313-1c55ea3ec666}, ! Handle
  90.1-2001 Res B24 Roof Metal Building,  ! Name
  ,                                       ! Type
  Construction,                           ! Line Item Type
  90.1-2001 Res B24 Roof Metal Building,  ! Item Name
  ,                                       ! Object End Use Key
  ,                                       ! Quantity {dimensionless}
  42.184,                                 ! Material Cost {$}
  CostPerArea;                            ! Material Cost Units

OS:ComponentData,
  {e8e7c625-c607-48b9-8112-f2c2be3cd0f7}, ! Handle
  Component Data 1,                       ! Name
  {f54ec36e-d664-464a-8863-c502c1753d36}, ! UUID
  {b6b9c27c-679e-4861-944b-243b531c9369}, ! Version UUID
  1363981604,                             ! Creation Timestamp
  1363981604,                             ! Version Timestamp
  {a1d6c701-edf2-4464-8152-2b5813334f0a}, ! Name of Object 1
  {06d34036-3ee3-49a8-be78-a92dd427cda1}, ! Name of Object 2
  {7d87c046-0c31-4c42-a1e6-70a1661a0e69}, ! Name of Object 3
  {51a245ab-f013-43f0-8313-1c55ea3ec666}; ! Name of Object 4

