
OS:Version,
  {ccd1e2aa-ed5f-485e-bbcb-079a6f0ab763}, ! Handle
  0.9.3;                                  ! Version Identifier

OS:Construction,
  {646a8000-bc90-4f29-a9ba-b2ee66efacee}, ! Handle
  189.1-2009 Nonres 1A Roof Attic and Other, ! Name
  ,                                       ! Surface Rendering Name
  {ab51df1e-559f-4594-aa9d-5cd3176c33d0}, ! Layer 1
  {c10f77c7-54cc-453b-bf6b-4ea6c53462aa}, ! Layer 2
  {03ccc61f-1631-442f-b33f-fb6bf2dc7384}, ! Layer 3
  {727dd258-e571-426e-b65b-046ad91cf70b}; ! Layer 4

OS:Material,
  {ab51df1e-559f-4594-aa9d-5cd3176c33d0}, ! Handle
  Wood Shingles,                          ! Name
  VeryRough,                              ! Roughness
  0.0178,                                 ! Thickness {m}
  0.115,                                  ! Conductivity {W/m-K}
  513,                                    ! Density {kg/m3}
  1255,                                   ! Specific Heat {J/kg-K}
  0.9,                                    ! Thermal Absorptance
  0.78,                                   ! Solar Absorptance
  0.78;                                   ! Visible Absorptance

OS:Material,
  {c10f77c7-54cc-453b-bf6b-4ea6c53462aa}, ! Handle
  1IN Wood Decking,                       ! Name
  MediumSmooth,                           ! Roughness
  0.0254,                                 ! Thickness {m}
  0.1211,                                 ! Conductivity {W/m-K}
  593,                                    ! Density {kg/m3}
  2510,                                   ! Specific Heat {J/kg-K}
  0.9,                                    ! Thermal Absorptance
  0.78,                                   ! Solar Absorptance
  0.78;                                   ! Visible Absorptance

OS:Material,
  {03ccc61f-1631-442f-b33f-fb6bf2dc7384}, ! Handle
  Roof Insulation [20],                   ! Name
  MediumRough,                            ! Roughness
  0.293889,                               ! Thickness {m}
  0.049,                                  ! Conductivity {W/m-K}
  265,                                    ! Density {kg/m3}
  836.8,                                  ! Specific Heat {J/kg-K}
  0.9,                                    ! Thermal Absorptance
  0.7,                                    ! Solar Absorptance
  0.7;                                    ! Visible Absorptance

OS:Material,
  {727dd258-e571-426e-b65b-046ad91cf70b}, ! Handle
  1/2IN Gypsum,                           ! Name
  Smooth,                                 ! Roughness
  0.01271,                                ! Thickness {m}
  0.16,                                   ! Conductivity {W/m-K}
  784.9,                                  ! Density {kg/m3}
  830,                                    ! Specific Heat {J/kg-K}
  0.9,                                    ! Thermal Absorptance
  0.92,                                   ! Solar Absorptance
  0.92;                                   ! Visible Absorptance

OS:ComponentCost:LineItem,
  {010a57c5-1957-4a67-a327-06442c3a8b79}, ! Handle
  189.1-2009 Nonres 1A Roof Attic and Other, ! Name
  ,                                       ! Type
  Construction,                           ! Line Item Type
  189.1-2009 Nonres 1A Roof Attic and Other, ! Item Name
  ,                                       ! Object End Use Key
  ,                                       ! Quantity {dimensionless}
  34.931,                                 ! Material Cost {$}
  CostPerArea;                            ! Material Cost Units

OS:ComponentData,
  {7f987ad3-5281-40ad-b1dc-e648ef192e2f}, ! Handle
  Component Data 1,                       ! Name
  {5777a0ad-3bdc-47f0-a537-f0b5aa8bdcd8}, ! UUID
  {66cc8953-1efc-4b34-a5ab-64bfae8040ea}, ! Version UUID
  1363979818,                             ! Creation Timestamp
  1363979818,                             ! Version Timestamp
  {646a8000-bc90-4f29-a9ba-b2ee66efacee}, ! Name of Object 1
  {ab51df1e-559f-4594-aa9d-5cd3176c33d0}, ! Name of Object 2
  {c10f77c7-54cc-453b-bf6b-4ea6c53462aa}, ! Name of Object 3
  {03ccc61f-1631-442f-b33f-fb6bf2dc7384}, ! Name of Object 4
  {727dd258-e571-426e-b65b-046ad91cf70b}, ! Name of Object 5
  {010a57c5-1957-4a67-a327-06442c3a8b79}; ! Name of Object 6

