
OS:Version,
  {c4be254a-4561-4fc9-b77b-8298a8610c80}, ! Handle
  0.9.3;                                  ! Version Identifier

OS:Material,
  {a50813c7-5825-4bf5-8276-9a9b59a502fb}, ! Handle
  Floor Insulation [8],                   ! Name
  MediumRough,                            ! Roughness
  0.046144,                               ! Thickness {m}
  0.045,                                  ! Conductivity {W/m-K}
  265,                                    ! Density {kg/m3}
  836.8,                                  ! Specific Heat {J/kg-K}
  0.9,                                    ! Thermal Absorptance
  0.7,                                    ! Solar Absorptance
  0.7;                                    ! Visible Absorptance

OS:Material:NoMass,
  {bbef9224-af3e-4963-8ae0-32778ecb4b42}, ! Handle
  CP02 CARPET PAD,                        ! Name
  VeryRough,                              ! Roughness
  0.21648,                                ! Thermal Resistance {m2-K/W}
  0.9,                                    ! Thermal Absorptance
  0.7,                                    ! Solar Absorptance
  0.8;                                    ! Visible Absorptance

OS:Construction,
  {684ae151-f57e-4255-b9e1-2da03bb7c15f}, ! Handle
  189.1-2009 Nonres 3A Exposed Floor Mass, ! Name
  ,                                       ! Surface Rendering Name
  {a50813c7-5825-4bf5-8276-9a9b59a502fb}, ! Layer 1
  {1404e9be-20a8-4424-ae4b-6dc9f45a61d2}, ! Layer 2
  {bbef9224-af3e-4963-8ae0-32778ecb4b42}; ! Layer 3

OS:Material,
  {1404e9be-20a8-4424-ae4b-6dc9f45a61d2}, ! Handle
  MAT-CC05 8 HW CONCRETE,                 ! Name
  Rough,                                  ! Roughness
  0.20321,                                ! Thickness {m}
  1.311,                                  ! Conductivity {W/m-K}
  2240,                                   ! Density {kg/m3}
  836.8,                                  ! Specific Heat {J/kg-K}
  0.9,                                    ! Thermal Absorptance
  0.7,                                    ! Solar Absorptance
  0.7;                                    ! Visible Absorptance

OS:ComponentCost:LineItem,
  {dddf2b01-7b3f-478e-a495-652112e1ad0f}, ! Handle
  189.1-2009 Nonres 3A Exposed Floor Mass, ! Name
  ,                                       ! Type
  Construction,                           ! Line Item Type
  189.1-2009 Nonres 3A Exposed Floor Mass, ! Item Name
  ,                                       ! Object End Use Key
  ,                                       ! Quantity {dimensionless}
  47.183,                                 ! Material Cost {$}
  CostPerArea;                            ! Material Cost Units

