
OS:Version,
  {90170bfa-3b4d-41e8-9b87-5a4b81cb1180}, ! Handle
  0.9.3;                                  ! Version Identifier

OS:Construction,
  {14a239a8-39c4-4986-837b-0931f2a9f9cc}, ! Handle
  Title 24-2008 Nonres 16 Window Fixed,   ! Name
  ,                                       ! Surface Rendering Name
  {0f6d07a9-47fc-4fd6-9e2d-e519869e79f5}; ! Layer 1

OS:WindowMaterial:Glazing,
  {0f6d07a9-47fc-4fd6-9e2d-e519869e79f5}, ! Handle
  Theoretical Glass [663],                ! Name
  SpectralAverage,                        ! Optical Data Type
  ,                                       ! Window Glass Spectral Data Set Name
  0.003,                                  ! Thickness {m}
  0.423708,                               ! Solar Transmittance at Normal Incidence
  0.526292,                               ! Front Side Solar Reflectance at Normal Incidence
  0.526292,                               ! Back Side Solar Reflectance at Normal Incidence
  0.429741,                               ! Visible Transmittance at Normal Incidence
  0.520259,                               ! Front Side Visible Reflectance at Normal Incidence
  0.520259,                               ! Back Side Visible Reflectance at Normal Incidence
  0,                                      ! Infrared Transmittance at Normal Incidence
  0.9,                                    ! Front Side Infrared Hemispherical Emissivity
  0.9,                                    ! Back Side Infrared Hemispherical Emissivity
  0.0139798;                              ! Conductivity {W/m-K}

OS:ComponentCost:LineItem,
  {57becda9-76e4-4148-bd02-1213c53e7463}, ! Handle
  Title 24-2008 Nonres 16 Window Fixed,   ! Name
  ,                                       ! Type
  Construction,                           ! Line Item Type
  Title 24-2008 Nonres 16 Window Fixed,   ! Item Name
  ,                                       ! Object End Use Key
  ,                                       ! Quantity {dimensionless}
  583.682,                                ! Material Cost {$}
  CostPerArea;                            ! Material Cost Units

