
! 
OS:Version,
  {8503bb35-3288-4176-9c41-752f3d976c4b}, !- Handle
  1.13.0;                                 !- Version Identifier


! 
OS:Material,
  {9afd94c6-5517-4d0a-95aa-bb7f611f5787}, !- Handle
  Aislamiento: SATE
WEBER: weber.therm placa EPS grafito 40 (0.040 m)
R: 1.2 m2K/W,                             !- Name
  MediumRough,                                 !- Roughness
  0.04,                                    !- Thickness {m}
  0.032,                                    !- Conductivity {W/m-K}
  15.0,                                    !- Density {kg/m3}
  800.0,                                    !- Specific Heat {J/kg-K}
  0.9,                                    !- Thermal Absorptance
  0.6,                                    !- Solar Absorptance
  0.6;                                    !- Visible Absorptance

