
OS:Version,
  {fae0d151-853e-4081-9c1c-f8fbe5e01371}, ! Handle
  0.9.3;                                  ! Version Identifier

OS:ComponentCost:LineItem,
  {44aee784-1068-456e-90da-4ecde4adbded}, ! Handle
  90.1-1999 Res B7 Roof Metal Building,   ! Name
  ,                                       ! Type
  Construction,                           ! Line Item Type
  90.1-1999 Res B7 Roof Metal Building,   ! Item Name
  ,                                       ! Object End Use Key
  ,                                       ! Quantity {dimensionless}
  38.206,                                 ! Material Cost {$}
  CostPerArea;                            ! Material Cost Units

OS:Material,
  {6c177774-28ab-4d16-ace8-e592869d65c6}, ! Handle
  Metal Roofing,                          ! Name
  MediumSmooth,                           ! Roughness
  0.001524,                               ! Thickness {m}
  45.006,                                 ! Conductivity {W/m-K}
  7680,                                   ! Density {kg/m3}
  418.4,                                  ! Specific Heat {J/kg-K}
  0.9,                                    ! Thermal Absorptance
  0.7,                                    ! Solar Absorptance
  0.3;                                    ! Visible Absorptance

OS:Material,
  {536ff795-6714-4d99-8f3c-1bc95827ce59}, ! Handle
  Roof Insulation [1],                    ! Name
  MediumRough,                            ! Roughness
  0.123533,                               ! Thickness {m}
  0.049,                                  ! Conductivity {W/m-K}
  265,                                    ! Density {kg/m3}
  836.8,                                  ! Specific Heat {J/kg-K}
  0.9,                                    ! Thermal Absorptance
  0.7,                                    ! Solar Absorptance
  0.7;                                    ! Visible Absorptance

OS:Construction,
  {94bca4be-e53d-4690-9126-81462514d8fe}, ! Handle
  90.1-1999 Res B7 Roof Metal Building,   ! Name
  ,                                       ! Surface Rendering Name
  {6c177774-28ab-4d16-ace8-e592869d65c6}, ! Layer 1
  {536ff795-6714-4d99-8f3c-1bc95827ce59}; ! Layer 2

