
! 
OS:Version,
  {9c37d538-db0d-4a47-9850-5bede7e76bd5}, !- Handle
  1.13.0;                                 !- Version Identifier


! {"nombreProductoCorto": "CLIMALIT PLUS con COOL LITE SKN 044 II F2 6 (16 argon90%) 44.2 DIAMANT", "codigoEAN": "", "handle": "af9da539-9d90-402a-a6ea-43246103afbd", "g": 0.23, "tV": 0.42, "u": 1.0, "nombreProducto": "CLIMALIT PLUS con COOL LITE SKN 044 II F2 6 (16 argon90%) 44.2 DIAMANT\nU:1.0 W/m2K - g:0.23 - Tv: 0.42"}
OS:WindowMaterial:SimpleGlazingSystem,
  {af9da539-9d90-402a-a6ea-43246103afbd}, !- Handle
  CLIMALIT PLUS con COOL LITE SKN 044 II F2 6 (16 argon90%) 44.2 DIAMANT, !- Name
  1.0,                                    !- U-Factor {W/m2-K}
  0.23,                                    !- Solar Heat Gain Coefficient
  0.42;                                    !- Visible Transmittance     
  
  
OS:Construction,
  {b40b15b2-70c4-47c1-a0a4-46e85b9f5fc0}, !- Handle
  CLIMALIT PLUS con COOL LITE SKN 044 II F2 6 (16 argon90%) 44.2 DIAMANT,                         !- Name
  ,                                       !- Surface Rendering Name
  {af9da539-9d90-402a-a6ea-43246103afbd}; !- Layer 1  

