
OS:Version,
  {d748310e-cec5-44d4-ba8b-2c29f7d70252}, ! Handle
  0.9.3;                                  ! Version Identifier

OS:Construction,
  {818a8da7-1131-467b-b97f-14d6c8929a2d}, ! Handle
  90.1 Windows Window Fixed 2513 Vnl-Hpt-Std-Clr, ! Name
  ,                                       ! Surface Rendering Name
  {768a2cbd-c75c-43df-9d5d-eef2a9ec5088}; ! Layer 1

OS:WindowMaterial:Glazing,
  {768a2cbd-c75c-43df-9d5d-eef2a9ec5088}, ! Handle
  Theoretical Glass [396],                ! Name
  SpectralAverage,                        ! Optical Data Type
  ,                                       ! Window Glass Spectral Data Set Name
  0.003,                                  ! Thickness {m}
  0.354147,                               ! Solar Transmittance at Normal Incidence
  0.595853,                               ! Front Side Solar Reflectance at Normal Incidence
  0.595853,                               ! Back Side Solar Reflectance at Normal Incidence
  0.50965,                                ! Visible Transmittance at Normal Incidence
  0.44035,                                ! Front Side Visible Reflectance at Normal Incidence
  0.44035,                                ! Back Side Visible Reflectance at Normal Incidence
  0,                                      ! Infrared Transmittance at Normal Incidence
  0.9,                                    ! Front Side Infrared Hemispherical Emissivity
  0.9,                                    ! Back Side Infrared Hemispherical Emissivity
  0.0161129;                              ! Conductivity {W/m-K}

OS:ComponentCost:LineItem,
  {457ade8c-d35a-462e-872a-4d92e67022f6}, ! Handle
  90.1 Windows Window Fixed 2513 Vnl-Hpt-Std-Clr, ! Name
  ,                                       ! Type
  Construction,                           ! Line Item Type
  90.1 Windows Window Fixed 2513 Vnl-Hpt-Std-Clr, ! Item Name
  ,                                       ! Object End Use Key
  ,                                       ! Quantity {dimensionless}
  0,                                      ! Material Cost {$}
  CostPerArea;                            ! Material Cost Units

OS:ComponentData,
  {f7039bbc-b7bf-4fd5-918d-4748e9c7b673}, ! Handle
  Component Data 1,                       ! Name
  {6e996a46-0edf-4ddd-947c-a0df8e20fe2a}, ! UUID
  {6f8b72cf-d8ec-421a-aa3a-b8d178cbb284}, ! Version UUID
  1363981014,                             ! Creation Timestamp
  1363981014,                             ! Version Timestamp
  {818a8da7-1131-467b-b97f-14d6c8929a2d}, ! Name of Object 1
  {768a2cbd-c75c-43df-9d5d-eef2a9ec5088}, ! Name of Object 2
  {457ade8c-d35a-462e-872a-4d92e67022f6}; ! Name of Object 3

