
OS:Version,
  {480b6499-47bd-4043-bdea-690caeb7a3f3}, ! Handle
  0.9.3;                                  ! Version Identifier

OS:Material,
  {92ad47f2-58a1-4550-b86b-c1a45c9b15a6}, ! Handle
  1/2IN Gypsum,                           ! Name
  Smooth,                                 ! Roughness
  0.01271,                                ! Thickness {m}
  0.16,                                   ! Conductivity {W/m-K}
  784.9,                                  ! Density {kg/m3}
  830,                                    ! Specific Heat {J/kg-K}
  0.9,                                    ! Thermal Absorptance
  0.92,                                   ! Solar Absorptance
  0.92;                                   ! Visible Absorptance

OS:Construction,
  {b86e30e1-3939-442a-b3a3-e18ca2b17812}, ! Handle
  90.1-2001 Nonres B22 Ext Wall Steel-Framed, ! Name
  ,                                       ! Surface Rendering Name
  {d2c65d31-b7cf-42af-aa05-dac778ccb69c}, ! Layer 1
  {43815caa-af8f-41e8-8889-fd63f8de7529}, ! Layer 2
  {92ad47f2-58a1-4550-b86b-c1a45c9b15a6}; ! Layer 3

OS:Material:NoMass,
  {d2c65d31-b7cf-42af-aa05-dac778ccb69c}, ! Handle
  MAT-SHEATH,                             ! Name
  Rough,                                  ! Roughness
  0.36256,                                ! Thermal Resistance {m2-K/W}
  0.9,                                    ! Thermal Absorptance
  0.7,                                    ! Solar Absorptance
  0.7;                                    ! Visible Absorptance

OS:Material,
  {43815caa-af8f-41e8-8889-fd63f8de7529}, ! Handle
  Wall Insulation [10],                   ! Name
  MediumRough,                            ! Roughness
  0.0971136,                              ! Thickness {m}
  0.045,                                  ! Conductivity {W/m-K}
  265,                                    ! Density {kg/m3}
  836.8,                                  ! Specific Heat {J/kg-K}
  0.9,                                    ! Thermal Absorptance
  0.7,                                    ! Solar Absorptance
  0.7;                                    ! Visible Absorptance

OS:ComponentCost:LineItem,
  {27985bd7-1225-4731-92dc-0df23f1b1a04}, ! Handle
  90.1-2001 Nonres B22 Ext Wall Steel-Framed, ! Name
  ,                                       ! Type
  Construction,                           ! Line Item Type
  90.1-2001 Nonres B22 Ext Wall Steel-Framed, ! Item Name
  ,                                       ! Object End Use Key
  ,                                       ! Quantity {dimensionless}
  94.657,                                 ! Material Cost {$}
  CostPerArea;                            ! Material Cost Units

