
OS:Version,
  {392903c4-06df-4dc4-89a6-63b58375e718}, ! Handle
  0.9.3;                                  ! Version Identifier

OS:Material,
  {5ae2202d-e0ae-4ce9-8871-11dcafc71b68}, ! Handle
  1/2IN Gypsum,                           ! Name
  Smooth,                                 ! Roughness
  0.01271,                                ! Thickness {m}
  0.16,                                   ! Conductivity {W/m-K}
  784.9,                                  ! Density {kg/m3}
  830,                                    ! Specific Heat {J/kg-K}
  0.9,                                    ! Thermal Absorptance
  0.92,                                   ! Solar Absorptance
  0.92;                                   ! Visible Absorptance

OS:Construction,
  {7bea4445-54de-47e2-bf4a-2ad3598846a2}, ! Handle
  AEDG-SmOffice 3A Roof Attic and Other,  ! Name
  ,                                       ! Surface Rendering Name
  {ba709512-7874-4e72-8e7d-9e93e0155997}, ! Layer 1
  {fe030a29-7942-4894-9707-06a452feba50}, ! Layer 2
  {0e088670-9bf5-4747-99bc-045223a61854}, ! Layer 3
  {5ae2202d-e0ae-4ce9-8871-11dcafc71b68}; ! Layer 4

OS:Material,
  {ba709512-7874-4e72-8e7d-9e93e0155997}, ! Handle
  Wood Shingles,                          ! Name
  VeryRough,                              ! Roughness
  0.0178,                                 ! Thickness {m}
  0.115,                                  ! Conductivity {W/m-K}
  513,                                    ! Density {kg/m3}
  1255,                                   ! Specific Heat {J/kg-K}
  0.9,                                    ! Thermal Absorptance
  0.78,                                   ! Solar Absorptance
  0.78;                                   ! Visible Absorptance

OS:Material,
  {fe030a29-7942-4894-9707-06a452feba50}, ! Handle
  1IN Wood Decking,                       ! Name
  MediumSmooth,                           ! Roughness
  0.0254,                                 ! Thickness {m}
  0.1211,                                 ! Conductivity {W/m-K}
  593,                                    ! Density {kg/m3}
  2510,                                   ! Specific Heat {J/kg-K}
  0.9,                                    ! Thermal Absorptance
  0.78,                                   ! Solar Absorptance
  0.78;                                   ! Visible Absorptance

OS:Material,
  {0e088670-9bf5-4747-99bc-045223a61854}, ! Handle
  Roof Insulation [5],                    ! Name
  MediumRough,                            ! Roughness
  0.286906,                               ! Thickness {m}
  0.049,                                  ! Conductivity {W/m-K}
  265,                                    ! Density {kg/m3}
  836.8,                                  ! Specific Heat {J/kg-K}
  0.9,                                    ! Thermal Absorptance
  0.7,                                    ! Solar Absorptance
  0.7;                                    ! Visible Absorptance

OS:ComponentCost:LineItem,
  {0388a9cd-d415-460d-bd50-22027e6f32e8}, ! Handle
  AEDG-SmOffice 3A Roof Attic and Other,  ! Name
  ,                                       ! Type
  Construction,                           ! Line Item Type
  AEDG-SmOffice 3A Roof Attic and Other,  ! Item Name
  ,                                       ! Object End Use Key
  ,                                       ! Quantity {dimensionless}
  34.757,                                 ! Material Cost {$}
  CostPerArea;                            ! Material Cost Units

