
OS:Version,
  {2a1ec191-d3fa-4339-8ec2-6035364be7d5}, ! Handle
  0.9.3;                                  ! Version Identifier

OS:Construction,
  {88298bfa-bdf1-45fc-94c1-7fff85fec96e}, !- Handle
  CLIMALIT PLUS con COOL LITE XTREME 70/33 F2 6 (16 argon90%) 44.2,                         !- Name
  ,                                       !- Surface Rendering Name
  {7790b9ad-9094-4ed5-b3c2-d11e760b93d5}; !- Layer 1  
  



        
OS:WindowMaterial:SimpleGlazingSystem,
  {7790b9ad-9094-4ed5-b3c2-d11e760b93d5}, !- Handle
  CLIMALIT PLUS con COOL LITE XTREME 70/33 F2 6 (16 argon90%) 44.2, !- Name
  1.0,                                    !- U-Factor {W/m2-K}
  0.33,                                    !- Solar Heat Gain Coefficient
  0.69;                                    !- Visible Transmittance     


OS:ComponentCost:LineItem,
  {d8e80281-46ed-4d2a-86df-ab4594fd1c1e}, ! Handle
  CLIMALIT PLUS con COOL LITE XTREME 70/33 F2 6 (16 argon90%) 44.2,        ! Name
  ,                                       ! Type
  Construction,                           ! Line Item Type
  CLIMALIT PLUS con COOL LITE XTREME 70/33 F2 6 (16 argon90%) 44.2,        ! Item Name
  ,                                       ! Object End Use Key
  ,                                       ! Quantity {dimensionless}
  600.0,                                ! Material Cost {$}
  CostPerArea;                            ! Material Cost Units



OS:ComponentData,
  {c63e205c-a779-4074-8349-d44e80aec89f}, ! Handle
  Component Data 1,                       ! Name
  {57e43ff4-52bc-45ae-9cef-b8829885ea85}, ! UUID
  {66b77f1c-3042-4eb8-a62f-d991bd800aaf}, ! Version UUID
  1487924014,                             ! Creation Timestamp
  1487924014,                             ! Version Timestamp
  {88298bfa-bdf1-45fc-94c1-7fff85fec96e}, ! Name of Object 1
  {7790b9ad-9094-4ed5-b3c2-d11e760b93d5}, ! Name of Object 2
  {d8e80281-46ed-4d2a-86df-ab4594fd1c1e}; ! Name of Object 3

  

