
! 
OS:Version,
  {9c37d538-db0d-4a47-9850-5bede7e76bd5}, !- Handle
  1.13.0;                                 !- Version Identifier


! {"nombreProductoCorto": "CLIMALIT PLUS con COOL LITE XTREME 70/33 F2 6 (16 argon90%) 44.2", "codigoEAN": "", "handle": "7790b9ad-9094-4ed5-b3c2-d11e760b93d5", "g": 0.33, "tV": 0.69, "u": 1.0, "nombreProducto": "CLIMALIT PLUS con COOL LITE XTREME 70/33 F2 6 (16 argon90%) 44.2\nU:1.0 W/m2K - g:0.33 - Tv: 0.69"}
OS:WindowMaterial:SimpleGlazingSystem,
  {7790b9ad-9094-4ed5-b3c2-d11e760b93d5}, !- Handle
  CLIMALIT PLUS con COOL LITE XTREME 70/33 F2 6 (16 argon90%) 44.2, !- Name
  1.0,                                    !- U-Factor {W/m2-K}
  0.33,                                    !- Solar Heat Gain Coefficient
  0.69;                                    !- Visible Transmittance     
  
  
OS:Construction,
  {d9bb4216-7757-4f3a-a05f-e31a7693dd3d}, !- Handle
  CLIMALIT PLUS con COOL LITE XTREME 70/33 F2 6 (16 argon90%) 44.2,                         !- Name
  ,                                       !- Surface Rendering Name
  {7790b9ad-9094-4ed5-b3c2-d11e760b93d5}; !- Layer 1  

