
OS:Version,
  {75a38ce9-ebbc-445f-8bc3-f7d7b76c2753}, ! Handle
  0.9.3;                                  ! Version Identifier

OS:Construction,
  {88a2c861-efe4-45ad-b2d4-9217dc8ae9ef}, ! Handle
  90.1-2001 Nonres B21 Int Wall,          ! Name
  ,                                       ! Surface Rendering Name
  {179ee989-0e21-4f99-b4b8-351eabbbf762}, ! Layer 1
  {179ee989-0e21-4f99-b4b8-351eabbbf762}; ! Layer 2

OS:Material,
  {179ee989-0e21-4f99-b4b8-351eabbbf762}, ! Handle
  GP01 1/2 GYPSUM,                        ! Name
  Smooth,                                 ! Roughness
  0.01271,                                ! Thickness {m}
  0.16,                                   ! Conductivity {W/m-K}
  800,                                    ! Density {kg/m3}
  1090,                                   ! Specific Heat {J/kg-K}
  0.9,                                    ! Thermal Absorptance
  0.7,                                    ! Solar Absorptance
  0.5;                                    ! Visible Absorptance

OS:ComponentCost:LineItem,
  {875a0ea3-c4ac-4c0b-baea-c4ff5b17bbbb}, ! Handle
  90.1-2001 Nonres B21 Int Wall,          ! Name
  ,                                       ! Type
  Construction,                           ! Line Item Type
  90.1-2001 Nonres B21 Int Wall,          ! Item Name
  ,                                       ! Object End Use Key
  ,                                       ! Quantity {dimensionless}
  0,                                      ! Material Cost {$}
  CostPerArea;                            ! Material Cost Units

OS:ComponentData,
  {258a4181-253b-4f51-af21-db363f778d0b}, ! Handle
  Component Data 1,                       ! Name
  {106686cf-fcce-4d03-aebd-d30dce78920c}, ! UUID
  {f2c7e04a-0aff-468a-a554-74d72aef3aa7}, ! Version UUID
  1363981405,                             ! Creation Timestamp
  1363981405,                             ! Version Timestamp
  {88a2c861-efe4-45ad-b2d4-9217dc8ae9ef}, ! Name of Object 1
  {179ee989-0e21-4f99-b4b8-351eabbbf762}, ! Name of Object 2
  {875a0ea3-c4ac-4c0b-baea-c4ff5b17bbbb}; ! Name of Object 3

