
OS:Version,
  {3328b575-e076-475e-8076-09d9ddcfc9ef}, ! Handle
  0.9.3;                                  ! Version Identifier

OS:Construction,
  {f3353a84-86fd-4fa6-b0b8-3f77626d2212}, ! Handle
  90.1-1999 Res B18 Roof Metal Building,  ! Name
  ,                                       ! Surface Rendering Name
  {c3bb3ce2-12d5-4a64-91b8-8ee7ffbbb77d}, ! Layer 1
  {95668411-e8b6-4cc7-b2dd-1115d1832757}; ! Layer 2

OS:Material,
  {c3bb3ce2-12d5-4a64-91b8-8ee7ffbbb77d}, ! Handle
  Metal Roofing,                          ! Name
  MediumSmooth,                           ! Roughness
  0.001524,                               ! Thickness {m}
  45.006,                                 ! Conductivity {W/m-K}
  7680,                                   ! Density {kg/m3}
  418.4,                                  ! Specific Heat {J/kg-K}
  0.9,                                    ! Thermal Absorptance
  0.7,                                    ! Solar Absorptance
  0.3;                                    ! Visible Absorptance

OS:Material,
  {95668411-e8b6-4cc7-b2dd-1115d1832757}, ! Handle
  Roof Insulation [1],                    ! Name
  MediumRough,                            ! Roughness
  0.123533,                               ! Thickness {m}
  0.049,                                  ! Conductivity {W/m-K}
  265,                                    ! Density {kg/m3}
  836.8,                                  ! Specific Heat {J/kg-K}
  0.9,                                    ! Thermal Absorptance
  0.7,                                    ! Solar Absorptance
  0.7;                                    ! Visible Absorptance

OS:ComponentCost:LineItem,
  {0cceee21-2c0e-4593-981b-23b031d6dd75}, ! Handle
  90.1-1999 Res B18 Roof Metal Building,  ! Name
  ,                                       ! Type
  Construction,                           ! Line Item Type
  90.1-1999 Res B18 Roof Metal Building,  ! Item Name
  ,                                       ! Object End Use Key
  ,                                       ! Quantity {dimensionless}
  38.206,                                 ! Material Cost {$}
  CostPerArea;                            ! Material Cost Units

OS:ComponentData,
  {c66ac58a-25c4-4f38-9c06-0580cf39414a}, ! Handle
  Component Data 1,                       ! Name
  {57b2f5d8-35f0-4bfc-b78b-0ca9d5d0ebf2}, ! UUID
  {cf896b37-321b-4ec6-9e2b-153ce4acb082}, ! Version UUID
  1363981241,                             ! Creation Timestamp
  1363981241,                             ! Version Timestamp
  {f3353a84-86fd-4fa6-b0b8-3f77626d2212}, ! Name of Object 1
  {c3bb3ce2-12d5-4a64-91b8-8ee7ffbbb77d}, ! Name of Object 2
  {95668411-e8b6-4cc7-b2dd-1115d1832757}, ! Name of Object 3
  {0cceee21-2c0e-4593-981b-23b031d6dd75}; ! Name of Object 4

