
OS:Version,
  {a89a0aa4-dc00-4eaa-a99f-a92a2270cd69}, ! Handle
  0.9.3;                                  ! Version Identifier

OS:Construction,
  {98e932e0-fc6b-4a81-8ab8-57e6ed87ea37}, ! Handle
  Title 24-2008 Nonres 7 Int Wall,        ! Name
  ,                                       ! Surface Rendering Name
  {1b3326d3-ac85-4ba6-87c4-f023641c3c86}, ! Layer 1
  {1b3326d3-ac85-4ba6-87c4-f023641c3c86}; ! Layer 2

OS:Material,
  {1b3326d3-ac85-4ba6-87c4-f023641c3c86}, ! Handle
  GP01 1/2 GYPSUM,                        ! Name
  Smooth,                                 ! Roughness
  0.01271,                                ! Thickness {m}
  0.16,                                   ! Conductivity {W/m-K}
  800,                                    ! Density {kg/m3}
  1090,                                   ! Specific Heat {J/kg-K}
  0.9,                                    ! Thermal Absorptance
  0.7,                                    ! Solar Absorptance
  0.5;                                    ! Visible Absorptance

OS:ComponentCost:LineItem,
  {645d0ca2-962e-4af9-9218-2366deacb01d}, ! Handle
  Title 24-2008 Nonres 7 Int Wall,        ! Name
  ,                                       ! Type
  Construction,                           ! Line Item Type
  Title 24-2008 Nonres 7 Int Wall,        ! Item Name
  ,                                       ! Object End Use Key
  ,                                       ! Quantity {dimensionless}
  0,                                      ! Material Cost {$}
  CostPerArea;                            ! Material Cost Units

OS:Material,
  {dff8554a-ca25-4d90-9995-047895538f90}, ! Handle
  GP01 1/2 GYPSUM 1,                      ! Name
  Smooth,                                 ! Roughness
  0.01271,                                ! Thickness {m}
  0.16,                                   ! Conductivity {W/m-K}
  800,                                    ! Density {kg/m3}
  1090,                                   ! Specific Heat {J/kg-K}
  0.9,                                    ! Thermal Absorptance
  0.7,                                    ! Solar Absorptance
  0.5;                                    ! Visible Absorptance

