
OS:Version,
  {44407e99-e079-4cbc-81d4-2caf8685c351}, ! Handle
  0.9.3;                                  ! Version Identifier

OS:Construction,
  {be1a8617-54f1-4ad1-9a2e-3f59d8d59c23}, ! Handle
  90.1-2001 Res B13 Ext Wall Mass,        ! Name
  ,                                       ! Surface Rendering Name
  {a7eaba2d-bdc1-423b-93b9-6a7a34280183}, ! Layer 1
  {fb66c05e-48ed-4995-b771-345f5225527b}, ! Layer 2
  {659d2e1c-3fbb-4466-a198-5c155b2abf63}, ! Layer 3
  {eb94bb14-83b7-4e4e-a878-cbe98e29f3b1}; ! Layer 4

OS:Material,
  {a7eaba2d-bdc1-423b-93b9-6a7a34280183}, ! Handle
  1IN Stucco,                             ! Name
  Smooth,                                 ! Roughness
  0.0253,                                 ! Thickness {m}
  0.6918,                                 ! Conductivity {W/m-K}
  1858,                                   ! Density {kg/m3}
  837,                                    ! Specific Heat {J/kg-K}
  0.9,                                    ! Thermal Absorptance
  0.92,                                   ! Solar Absorptance
  0.92;                                   ! Visible Absorptance

OS:Material,
  {fb66c05e-48ed-4995-b771-345f5225527b}, ! Handle
  8IN Concrete HW,                        ! Name
  MediumRough,                            ! Roughness
  0.2033,                                 ! Thickness {m}
  1.7296,                                 ! Conductivity {W/m-K}
  2243,                                   ! Density {kg/m3}
  837,                                    ! Specific Heat {J/kg-K}
  0.9,                                    ! Thermal Absorptance
  0.65,                                   ! Solar Absorptance
  0.65;                                   ! Visible Absorptance

OS:Material,
  {659d2e1c-3fbb-4466-a198-5c155b2abf63}, ! Handle
  Wall Insulation [7],                    ! Name
  MediumRough,                            ! Roughness
  0.056577,                               ! Thickness {m}
  0.0432,                                 ! Conductivity {W/m-K}
  91,                                     ! Density {kg/m3}
  837,                                    ! Specific Heat {J/kg-K}
  0.9,                                    ! Thermal Absorptance
  0.5,                                    ! Solar Absorptance
  0.5;                                    ! Visible Absorptance

OS:Material,
  {eb94bb14-83b7-4e4e-a878-cbe98e29f3b1}, ! Handle
  1/2IN Gypsum,                           ! Name
  Smooth,                                 ! Roughness
  0.01271,                                ! Thickness {m}
  0.16,                                   ! Conductivity {W/m-K}
  784.9,                                  ! Density {kg/m3}
  830,                                    ! Specific Heat {J/kg-K}
  0.9,                                    ! Thermal Absorptance
  0.92,                                   ! Solar Absorptance
  0.92;                                   ! Visible Absorptance

OS:ComponentCost:LineItem,
  {a7d149e4-00b4-438e-866d-8bea7326c032}, ! Handle
  90.1-2001 Res B13 Ext Wall Mass,        ! Name
  ,                                       ! Type
  Construction,                           ! Line Item Type
  90.1-2001 Res B13 Ext Wall Mass,        ! Item Name
  ,                                       ! Object End Use Key
  ,                                       ! Quantity {dimensionless}
  63.663,                                 ! Material Cost {$}
  CostPerArea;                            ! Material Cost Units

OS:ComponentData,
  {35c807c1-8fef-4b56-954f-72a3fdde64e4}, ! Handle
  Component Data 1,                       ! Name
  {9dce3255-2ca8-4937-a276-b11961eacbc3}, ! UUID
  {2b3cdbbf-0ae9-47dc-a1d1-83e09f9135d8}, ! Version UUID
  1363981521,                             ! Creation Timestamp
  1363981521,                             ! Version Timestamp
  {be1a8617-54f1-4ad1-9a2e-3f59d8d59c23}, ! Name of Object 1
  {a7eaba2d-bdc1-423b-93b9-6a7a34280183}, ! Name of Object 2
  {fb66c05e-48ed-4995-b771-345f5225527b}, ! Name of Object 3
  {659d2e1c-3fbb-4466-a198-5c155b2abf63}, ! Name of Object 4
  {eb94bb14-83b7-4e4e-a878-cbe98e29f3b1}, ! Name of Object 5
  {a7d149e4-00b4-438e-866d-8bea7326c032}; ! Name of Object 6

