
OS:Version,
  {74dacab7-d16b-483e-bb0e-a1995fb4a5aa}, ! Handle
  0.9.3;                                  ! Version Identifier

OS:Material,
  {b08ff051-0183-42a2-b853-52d994bcedea}, ! Handle
  GP01 1/2 GYPSUM,                        ! Name
  Smooth,                                 ! Roughness
  0.01271,                                ! Thickness {m}
  0.16,                                   ! Conductivity {W/m-K}
  800,                                    ! Density {kg/m3}
  1090,                                   ! Specific Heat {J/kg-K}
  0.9,                                    ! Thermal Absorptance
  0.7,                                    ! Solar Absorptance
  0.5;                                    ! Visible Absorptance

OS:Construction,
  {18aebffe-ad65-4593-9920-76b3a70e7ad5}, ! Handle
  90.1-1999 Res B12 Int Wall,             ! Name
  ,                                       ! Surface Rendering Name
  {b08ff051-0183-42a2-b853-52d994bcedea}, ! Layer 1
  {b08ff051-0183-42a2-b853-52d994bcedea}; ! Layer 2

OS:ComponentCost:LineItem,
  {c524bd88-85e4-4297-8817-39b57c10e827}, ! Handle
  90.1-1999 Res B12 Int Wall,             ! Name
  ,                                       ! Type
  Construction,                           ! Line Item Type
  90.1-1999 Res B12 Int Wall,             ! Item Name
  ,                                       ! Object End Use Key
  ,                                       ! Quantity {dimensionless}
  0,                                      ! Material Cost {$}
  CostPerArea;                            ! Material Cost Units

OS:Material,
  {a387cb07-976c-4d9c-a8c9-5deae7e3810e}, ! Handle
  GP01 1/2 GYPSUM 1,                      ! Name
  Smooth,                                 ! Roughness
  0.01271,                                ! Thickness {m}
  0.16,                                   ! Conductivity {W/m-K}
  800,                                    ! Density {kg/m3}
  1090,                                   ! Specific Heat {J/kg-K}
  0.9,                                    ! Thermal Absorptance
  0.7,                                    ! Solar Absorptance
  0.5;                                    ! Visible Absorptance

