
OS:Version,
  {e0109f5e-2c19-45e4-9e45-6c53ae22b619}, ! Handle
  0.9.3;                                  ! Version Identifier

OS:Construction,
  {f5c5c9f1-244d-401d-b819-2d28842d2f35}, ! Handle
  90.1-2001 Res B4 Ext Wall Mass,         ! Name
  ,                                       ! Surface Rendering Name
  {e4da2fa9-ca1e-4def-98d3-ea50657dd503}, ! Layer 1
  {c5646b1f-7763-41ba-a019-6f57d1e46fea}, ! Layer 2
  {f12b93fc-9589-4763-8a15-02d8a1655ca9}; ! Layer 3

OS:Material,
  {e4da2fa9-ca1e-4def-98d3-ea50657dd503}, ! Handle
  1IN Stucco,                             ! Name
  Smooth,                                 ! Roughness
  0.0253,                                 ! Thickness {m}
  0.6918,                                 ! Conductivity {W/m-K}
  1858,                                   ! Density {kg/m3}
  837,                                    ! Specific Heat {J/kg-K}
  0.9,                                    ! Thermal Absorptance
  0.92,                                   ! Solar Absorptance
  0.92;                                   ! Visible Absorptance

OS:Material,
  {c5646b1f-7763-41ba-a019-6f57d1e46fea}, ! Handle
  8IN Concrete HW,                        ! Name
  MediumRough,                            ! Roughness
  0.2033,                                 ! Thickness {m}
  1.7296,                                 ! Conductivity {W/m-K}
  2243,                                   ! Density {kg/m3}
  837,                                    ! Specific Heat {J/kg-K}
  0.9,                                    ! Thermal Absorptance
  0.65,                                   ! Solar Absorptance
  0.65;                                   ! Visible Absorptance

OS:Material,
  {f12b93fc-9589-4763-8a15-02d8a1655ca9}, ! Handle
  1/2IN Gypsum,                           ! Name
  Smooth,                                 ! Roughness
  0.01271,                                ! Thickness {m}
  0.16,                                   ! Conductivity {W/m-K}
  784.9,                                  ! Density {kg/m3}
  830,                                    ! Specific Heat {J/kg-K}
  0.9,                                    ! Thermal Absorptance
  0.92,                                   ! Solar Absorptance
  0.92;                                   ! Visible Absorptance

OS:ComponentCost:LineItem,
  {d713611f-ee0f-487a-ad75-ad89c9364518}, ! Handle
  90.1-2001 Res B4 Ext Wall Mass,         ! Name
  ,                                       ! Type
  Construction,                           ! Line Item Type
  90.1-2001 Res B4 Ext Wall Mass,         ! Item Name
  ,                                       ! Object End Use Key
  ,                                       ! Quantity {dimensionless}
  41.397,                                 ! Material Cost {$}
  CostPerArea;                            ! Material Cost Units

