
OS:Version,
  {1f75b8a0-19d5-4d84-9e0f-a0f5ac11c91a}, ! Handle
  0.9.3;                                  ! Version Identifier

OS:Construction,
  {bf6a4f79-53a9-458c-9664-757d460a772c}, ! Handle
  90.1-2001 Res B4 Ext Wall Mass,         ! Name
  ,                                       ! Surface Rendering Name
  {a97f9416-923a-4630-a8e3-a97e9adddb7f}, ! Layer 1
  {e28b3f2b-34c4-494e-a04b-6337947c961a}, ! Layer 2
  {8060a971-e993-458f-8a14-004208dd264c}; ! Layer 3

OS:Material,
  {a97f9416-923a-4630-a8e3-a97e9adddb7f}, ! Handle
  1IN Stucco,                             ! Name
  Smooth,                                 ! Roughness
  0.0253,                                 ! Thickness {m}
  0.6918,                                 ! Conductivity {W/m-K}
  1858,                                   ! Density {kg/m3}
  837,                                    ! Specific Heat {J/kg-K}
  0.9,                                    ! Thermal Absorptance
  0.92,                                   ! Solar Absorptance
  0.92;                                   ! Visible Absorptance

OS:Material,
  {e28b3f2b-34c4-494e-a04b-6337947c961a}, ! Handle
  8IN Concrete HW,                        ! Name
  MediumRough,                            ! Roughness
  0.2033,                                 ! Thickness {m}
  1.7296,                                 ! Conductivity {W/m-K}
  2243,                                   ! Density {kg/m3}
  837,                                    ! Specific Heat {J/kg-K}
  0.9,                                    ! Thermal Absorptance
  0.65,                                   ! Solar Absorptance
  0.65;                                   ! Visible Absorptance

OS:Material,
  {8060a971-e993-458f-8a14-004208dd264c}, ! Handle
  1/2IN Gypsum,                           ! Name
  Smooth,                                 ! Roughness
  0.01271,                                ! Thickness {m}
  0.16,                                   ! Conductivity {W/m-K}
  784.9,                                  ! Density {kg/m3}
  830,                                    ! Specific Heat {J/kg-K}
  0.9,                                    ! Thermal Absorptance
  0.92,                                   ! Solar Absorptance
  0.92;                                   ! Visible Absorptance

OS:ComponentCost:LineItem,
  {ce11726d-c654-4934-8065-40cb694d5754}, ! Handle
  90.1-2001 Res B4 Ext Wall Mass,         ! Name
  ,                                       ! Type
  Construction,                           ! Line Item Type
  90.1-2001 Res B4 Ext Wall Mass,         ! Item Name
  ,                                       ! Object End Use Key
  ,                                       ! Quantity {dimensionless}
  41.397,                                 ! Material Cost {$}
  CostPerArea;                            ! Material Cost Units

OS:ComponentData,
  {99dfdc52-98d6-4a47-9ec7-ceaf275fc551}, ! Handle
  Component Data 1,                       ! Name
  {4e9befa8-1949-4f17-9e04-0b39159aed69}, ! UUID
  {02b9b059-a955-46aa-b437-0fff9d32ff27}, ! Version UUID
  1363981464,                             ! Creation Timestamp
  1363981464,                             ! Version Timestamp
  {bf6a4f79-53a9-458c-9664-757d460a772c}, ! Name of Object 1
  {a97f9416-923a-4630-a8e3-a97e9adddb7f}, ! Name of Object 2
  {e28b3f2b-34c4-494e-a04b-6337947c961a}, ! Name of Object 3
  {8060a971-e993-458f-8a14-004208dd264c}, ! Name of Object 4
  {ce11726d-c654-4934-8065-40cb694d5754}; ! Name of Object 5

