
OS:Version,
  {82e8e63c-739e-4932-bb7e-05f0361378eb}, ! Handle
  0.9.3;                                  ! Version Identifier

OS:Material:NoMass,
  {c311fde3-b34b-4bc6-8439-6be3f16e1975}, ! Handle
  CP02 CARPET PAD,                        ! Name
  VeryRough,                              ! Roughness
  0.21648,                                ! Thermal Resistance {m2-K/W}
  0.9,                                    ! Thermal Absorptance
  0.7,                                    ! Solar Absorptance
  0.8;                                    ! Visible Absorptance

OS:Material,
  {51a199b1-a313-4257-aa38-f01729d8a105}, ! Handle
  MAT-CC05 4 HW CONCRETE,                 ! Name
  Rough,                                  ! Roughness
  0.1016,                                 ! Thickness {m}
  1.311,                                  ! Conductivity {W/m-K}
  2240,                                   ! Density {kg/m3}
  836.8,                                  ! Specific Heat {J/kg-K}
  0.9,                                    ! Thermal Absorptance
  0.7,                                    ! Solar Absorptance
  0.7;                                    ! Visible Absorptance

OS:ComponentCost:LineItem,
  {7bd7d4ae-f3ea-418e-ac51-e3cc6a84571d}, ! Handle
  90.1-2004 Res 8A Ext Slab Unheated - 4in Slab with Carpet, ! Name
  ,                                       ! Type
  Construction,                           ! Line Item Type
  90.1-2004 Res 8A Ext Slab Unheated - 4in Slab with Carpet, ! Item Name
  ,                                       ! Object End Use Key
  ,                                       ! Quantity {dimensionless}
  45.52,                                  ! Material Cost {$}
  CostPerArea;                            ! Material Cost Units

OS:Construction,
  {3be30a37-e293-47dc-a650-640472c7eb38}, ! Handle
  90.1-2004 Res 8A Ext Slab Unheated - 4in Slab with Carpet, ! Name
  ,                                       ! Surface Rendering Name
  {51a199b1-a313-4257-aa38-f01729d8a105}, ! Layer 1
  {c311fde3-b34b-4bc6-8439-6be3f16e1975}; ! Layer 2

