
OS:Version,
  {04ea8d42-ba62-4fe2-9192-549848de657c}, ! Handle
  0.9.3;                                  ! Version Identifier

OS:Material,
  {6cda936a-e1ea-4e91-bfdd-575fb0e3e016}, ! Handle
  Wood Shingles,                          ! Name
  VeryRough,                              ! Roughness
  0.0178,                                 ! Thickness {m}
  0.115,                                  ! Conductivity {W/m-K}
  513,                                    ! Density {kg/m3}
  1255,                                   ! Specific Heat {J/kg-K}
  0.9,                                    ! Thermal Absorptance
  0.78,                                   ! Solar Absorptance
  0.78;                                   ! Visible Absorptance

OS:Material,
  {a7a22502-3224-4e8e-b39f-f9e97271fb0f}, ! Handle
  1IN Wood Decking,                       ! Name
  MediumSmooth,                           ! Roughness
  0.0254,                                 ! Thickness {m}
  0.1211,                                 ! Conductivity {W/m-K}
  593,                                    ! Density {kg/m3}
  2510,                                   ! Specific Heat {J/kg-K}
  0.9,                                    ! Thermal Absorptance
  0.78,                                   ! Solar Absorptance
  0.78;                                   ! Visible Absorptance

OS:Material,
  {ef769a79-9c24-4f66-b603-be73ffdd96e7}, ! Handle
  1/2IN Gypsum,                           ! Name
  Smooth,                                 ! Roughness
  0.01271,                                ! Thickness {m}
  0.16,                                   ! Conductivity {W/m-K}
  784.9,                                  ! Density {kg/m3}
  830,                                    ! Specific Heat {J/kg-K}
  0.9,                                    ! Thermal Absorptance
  0.92,                                   ! Solar Absorptance
  0.92;                                   ! Visible Absorptance

OS:Construction,
  {c5b0cc4f-ecfb-4869-a1df-0b1dc27f86da}, ! Handle
  90.1-1999 Res B16 Roof Attic and Other, ! Name
  ,                                       ! Surface Rendering Name
  {6cda936a-e1ea-4e91-bfdd-575fb0e3e016}, ! Layer 1
  {a7a22502-3224-4e8e-b39f-f9e97271fb0f}, ! Layer 2
  {839d40b6-19f5-4a87-8031-08f62f88a63b}, ! Layer 3
  {ef769a79-9c24-4f66-b603-be73ffdd96e7}; ! Layer 4

OS:Material,
  {839d40b6-19f5-4a87-8031-08f62f88a63b}, ! Handle
  Roof Insulation [5],                    ! Name
  MediumRough,                            ! Roughness
  0.286906,                               ! Thickness {m}
  0.049,                                  ! Conductivity {W/m-K}
  265,                                    ! Density {kg/m3}
  836.8,                                  ! Specific Heat {J/kg-K}
  0.9,                                    ! Thermal Absorptance
  0.7,                                    ! Solar Absorptance
  0.7;                                    ! Visible Absorptance

OS:ComponentCost:LineItem,
  {2d51197d-66e9-4531-ac62-fdc666fa1a4f}, ! Handle
  90.1-1999 Res B16 Roof Attic and Other, ! Name
  ,                                       ! Type
  Construction,                           ! Line Item Type
  90.1-1999 Res B16 Roof Attic and Other, ! Item Name
  ,                                       ! Object End Use Key
  ,                                       ! Quantity {dimensionless}
  34.757,                                 ! Material Cost {$}
  CostPerArea;                            ! Material Cost Units

