
OS:Version,
  {b59c49a3-a119-404a-a1d5-39643f693187}, ! Handle
  0.9.3;                                  ! Version Identifier

OS:Material,
  {06a05812-d294-4538-8720-ead8005d6c14}, ! Handle
  Wall Insulation [13],                   ! Name
  MediumRough,                            ! Roughness
  0.140713,                               ! Thickness {m}
  0.045,                                  ! Conductivity {W/m-K}
  265,                                    ! Density {kg/m3}
  836.8,                                  ! Specific Heat {J/kg-K}
  0.9,                                    ! Thermal Absorptance
  0.7,                                    ! Solar Absorptance
  0.7;                                    ! Visible Absorptance

OS:Material,
  {12ab7a88-d20f-47c7-a3e9-31c2fe46b5b2}, ! Handle
  1/2IN Gypsum,                           ! Name
  Smooth,                                 ! Roughness
  0.01271,                                ! Thickness {m}
  0.16,                                   ! Conductivity {W/m-K}
  784.9,                                  ! Density {kg/m3}
  830,                                    ! Specific Heat {J/kg-K}
  0.9,                                    ! Thermal Absorptance
  0.92,                                   ! Solar Absorptance
  0.92;                                   ! Visible Absorptance

OS:ComponentCost:LineItem,
  {38982b3d-8bdb-4f90-bc0d-f93b074ed1ac}, ! Handle
  90.1-2001 Nonres B25 Ext Wall Wood-Framed and Other, ! Name
  ,                                       ! Type
  Construction,                           ! Line Item Type
  90.1-2001 Nonres B25 Ext Wall Wood-Framed and Other, ! Item Name
  ,                                       ! Object End Use Key
  ,                                       ! Quantity {dimensionless}
  80.638,                                 ! Material Cost {$}
  CostPerArea;                            ! Material Cost Units

OS:Construction,
  {0711057b-1973-45a4-b5c3-16effc786100}, ! Handle
  90.1-2001 Nonres B25 Ext Wall Wood-Framed and Other, ! Name
  ,                                       ! Surface Rendering Name
  {0287fd59-358f-4f99-915d-1cb2ae303004}, ! Layer 1
  {06a05812-d294-4538-8720-ead8005d6c14}, ! Layer 2
  {12ab7a88-d20f-47c7-a3e9-31c2fe46b5b2}; ! Layer 3

OS:Material,
  {0287fd59-358f-4f99-915d-1cb2ae303004}, ! Handle
  Wood Siding,                            ! Name
  MediumSmooth,                           ! Roughness
  0.01,                                   ! Thickness {m}
  0.11,                                   ! Conductivity {W/m-K}
  544.62,                                 ! Density {kg/m3}
  1210,                                   ! Specific Heat {J/kg-K}
  0.9,                                    ! Thermal Absorptance
  0.78,                                   ! Solar Absorptance
  0.78;                                   ! Visible Absorptance

