
OS:Version,
  {aab0a626-4a86-4acb-aeca-300776a80716}, ! Handle
  0.9.3;                                  ! Version Identifier

OS:Construction,
  {e158d0cf-25bb-4a19-a7c8-54347e0f5a5f}, ! Handle
  90.1-2001 Nonres B25 Ext Wall Wood-Framed and Other, ! Name
  ,                                       ! Surface Rendering Name
  {c3010e1d-04c1-4eef-a48e-0b390e9669c0}, ! Layer 1
  {b280a7b6-5e52-44ef-93d5-fc6b77d8c010}, ! Layer 2
  {4475057e-142c-4b7e-9fe5-1a5ca29bed6d}; ! Layer 3

OS:Material,
  {c3010e1d-04c1-4eef-a48e-0b390e9669c0}, ! Handle
  Wood Siding,                            ! Name
  MediumSmooth,                           ! Roughness
  0.01,                                   ! Thickness {m}
  0.11,                                   ! Conductivity {W/m-K}
  544.62,                                 ! Density {kg/m3}
  1210,                                   ! Specific Heat {J/kg-K}
  0.9,                                    ! Thermal Absorptance
  0.78,                                   ! Solar Absorptance
  0.78;                                   ! Visible Absorptance

OS:Material,
  {b280a7b6-5e52-44ef-93d5-fc6b77d8c010}, ! Handle
  Wall Insulation [13],                   ! Name
  MediumRough,                            ! Roughness
  0.140713,                               ! Thickness {m}
  0.045,                                  ! Conductivity {W/m-K}
  265,                                    ! Density {kg/m3}
  836.8,                                  ! Specific Heat {J/kg-K}
  0.9,                                    ! Thermal Absorptance
  0.7,                                    ! Solar Absorptance
  0.7;                                    ! Visible Absorptance

OS:Material,
  {4475057e-142c-4b7e-9fe5-1a5ca29bed6d}, ! Handle
  1/2IN Gypsum,                           ! Name
  Smooth,                                 ! Roughness
  0.01271,                                ! Thickness {m}
  0.16,                                   ! Conductivity {W/m-K}
  784.9,                                  ! Density {kg/m3}
  830,                                    ! Specific Heat {J/kg-K}
  0.9,                                    ! Thermal Absorptance
  0.92,                                   ! Solar Absorptance
  0.92;                                   ! Visible Absorptance

OS:ComponentCost:LineItem,
  {1c9a4bf2-7f29-462b-9a50-2956c8895002}, ! Handle
  90.1-2001 Nonres B25 Ext Wall Wood-Framed and Other, ! Name
  ,                                       ! Type
  Construction,                           ! Line Item Type
  90.1-2001 Nonres B25 Ext Wall Wood-Framed and Other, ! Item Name
  ,                                       ! Object End Use Key
  ,                                       ! Quantity {dimensionless}
  80.638,                                 ! Material Cost {$}
  CostPerArea;                            ! Material Cost Units

OS:ComponentData,
  {ee43e0ec-3169-4143-b42d-8b8fe65eac97}, ! Handle
  Component Data 1,                       ! Name
  {80d5b8e2-ee53-4434-bcac-60e18f2352ed}, ! UUID
  {902ac79b-7288-4994-b92d-373a11a833ea}, ! Version UUID
  1363981432,                             ! Creation Timestamp
  1363981432,                             ! Version Timestamp
  {e158d0cf-25bb-4a19-a7c8-54347e0f5a5f}, ! Name of Object 1
  {c3010e1d-04c1-4eef-a48e-0b390e9669c0}, ! Name of Object 2
  {b280a7b6-5e52-44ef-93d5-fc6b77d8c010}, ! Name of Object 3
  {4475057e-142c-4b7e-9fe5-1a5ca29bed6d}, ! Name of Object 4
  {1c9a4bf2-7f29-462b-9a50-2956c8895002}; ! Name of Object 5

