
OS:Version,
  {ad364c44-f83f-4f24-a6b7-b3c33a443b92}, ! Handle
  0.9.3;                                  ! Version Identifier

OS:WindowMaterial:Glazing,
  {4aef2b36-967a-4d66-a814-001763aae188}, ! Handle
  Theoretical Glass [122],                ! Name
  SpectralAverage,                        ! Optical Data Type
  ,                                       ! Window Glass Spectral Data Set Name
  0.003,                                  ! Thickness {m}
  0.43834,                                ! Solar Transmittance at Normal Incidence
  0.51166,                                ! Front Side Solar Reflectance at Normal Incidence
  0.51166,                                ! Back Side Solar Reflectance at Normal Incidence
  0.460166,                               ! Visible Transmittance at Normal Incidence
  0.489834,                               ! Front Side Visible Reflectance at Normal Incidence
  0.489834,                               ! Back Side Visible Reflectance at Normal Incidence
  0,                                      ! Infrared Transmittance at Normal Incidence
  0.9,                                    ! Front Side Infrared Hemispherical Emissivity
  0.9,                                    ! Back Side Infrared Hemispherical Emissivity
  0.00560663;                             ! Conductivity {W/m-K}

OS:ComponentCost:LineItem,
  {9862b578-2dd4-4f0c-b231-d5ab3c1180db}, ! Handle
  90.1-2001 Res B26 Window Fixed,         ! Name
  ,                                       ! Type
  Construction,                           ! Line Item Type
  90.1-2001 Res B26 Window Fixed,         ! Item Name
  ,                                       ! Object End Use Key
  ,                                       ! Quantity {dimensionless}
  660.078,                                ! Material Cost {$}
  CostPerArea;                            ! Material Cost Units

OS:Construction,
  {61257a6f-352c-4830-95b9-4658422c79b6}, ! Handle
  90.1-2001 Res B26 Window Fixed,         ! Name
  ,                                       ! Surface Rendering Name
  {4aef2b36-967a-4d66-a814-001763aae188}; ! Layer 1

