
OS:Version,
  {25397d91-02e8-457d-8884-0d87061e0892}, ! Handle
  0.9.3;                                  ! Version Identifier

OS:Construction,
  {bd72ef81-eb94-4f38-b9aa-0fe2781710d0}, ! Handle
  90.1-2004 Res 2A Ext Slab Unheated - 4in Slab without Carpet, ! Name
  ,                                       ! Surface Rendering Name
  {f65dcf5e-b05c-4a59-97b4-7b96d97c1dc0}; ! Layer 1

OS:Material,
  {f65dcf5e-b05c-4a59-97b4-7b96d97c1dc0}, ! Handle
  MAT-CC05 4 HW CONCRETE,                 ! Name
  Rough,                                  ! Roughness
  0.1016,                                 ! Thickness {m}
  1.311,                                  ! Conductivity {W/m-K}
  2240,                                   ! Density {kg/m3}
  836.8,                                  ! Specific Heat {J/kg-K}
  0.9,                                    ! Thermal Absorptance
  0.7,                                    ! Solar Absorptance
  0.7;                                    ! Visible Absorptance

OS:ComponentCost:LineItem,
  {ac3c7f7d-b18f-4286-883a-1dfc86d41933}, ! Handle
  90.1-2004 Res 2A Ext Slab Unheated - 4in Slab without Carpet, ! Name
  ,                                       ! Type
  Construction,                           ! Line Item Type
  90.1-2004 Res 2A Ext Slab Unheated - 4in Slab without Carpet, ! Item Name
  ,                                       ! Object End Use Key
  ,                                       ! Quantity {dimensionless}
  45.52,                                  ! Material Cost {$}
  CostPerArea;                            ! Material Cost Units

OS:ComponentData,
  {b04d9a74-813b-474c-8aa1-40bd1d7f2e49}, ! Handle
  Component Data 1,                       ! Name
  {beedb39a-569c-49db-b1b1-fab0336251a9}, ! UUID
  {ed59b13e-0241-4f1c-b38d-e83ce942175d}, ! Version UUID
  1363981719,                             ! Creation Timestamp
  1363981719,                             ! Version Timestamp
  {bd72ef81-eb94-4f38-b9aa-0fe2781710d0}, ! Name of Object 1
  {f65dcf5e-b05c-4a59-97b4-7b96d97c1dc0}, ! Name of Object 2
  {ac3c7f7d-b18f-4286-883a-1dfc86d41933}; ! Name of Object 3

