
OS:Version,
  {7bb34897-42d0-442b-91f2-f2c3dc326ec0}, ! Handle
  0.9.3;                                  ! Version Identifier

OS:Construction,
  {3d04cd87-5bf8-42e4-bf10-bafd0594e7c1}, ! Handle
  AEDG SHC Nonres 2A Ext Wall Steel-Framed, ! Name
  ,                                       ! Surface Rendering Name
  {29a5ecfc-7e2a-404b-8d31-deab6ee3d28b}, ! Layer 1
  {4c2e4e12-6527-46ac-8814-04828feaf3a5}, ! Layer 2
  {09fe639c-f404-42aa-aabf-782c6d020b8f}; ! Layer 3

OS:Material:NoMass,
  {29a5ecfc-7e2a-404b-8d31-deab6ee3d28b}, ! Handle
  MAT-SHEATH,                             ! Name
  Rough,                                  ! Roughness
  0.36256,                                ! Thermal Resistance {m2-K/W}
  0.9,                                    ! Thermal Absorptance
  0.7,                                    ! Solar Absorptance
  0.7;                                    ! Visible Absorptance

OS:Material,
  {4c2e4e12-6527-46ac-8814-04828feaf3a5}, ! Handle
  Wall Insulation [59],                   ! Name
  MediumRough,                            ! Roughness
  0.0965812,                              ! Thickness {m}
  0.045,                                  ! Conductivity {W/m-K}
  265,                                    ! Density {kg/m3}
  836.8,                                  ! Specific Heat {J/kg-K}
  0.9,                                    ! Thermal Absorptance
  0.7,                                    ! Solar Absorptance
  0.7;                                    ! Visible Absorptance

OS:Material,
  {09fe639c-f404-42aa-aabf-782c6d020b8f}, ! Handle
  1/2IN Gypsum,                           ! Name
  Smooth,                                 ! Roughness
  0.01271,                                ! Thickness {m}
  0.16,                                   ! Conductivity {W/m-K}
  784.9,                                  ! Density {kg/m3}
  830,                                    ! Specific Heat {J/kg-K}
  0.9,                                    ! Thermal Absorptance
  0.92,                                   ! Solar Absorptance
  0.92;                                   ! Visible Absorptance

OS:ComponentCost:LineItem,
  {55eed421-bd3c-48d2-abfb-eea9d3e4cdd8}, ! Handle
  AEDG SHC Nonres 2A Ext Wall Steel-Framed, ! Name
  ,                                       ! Type
  Construction,                           ! Line Item Type
  AEDG SHC Nonres 2A Ext Wall Steel-Framed, ! Item Name
  ,                                       ! Object End Use Key
  ,                                       ! Quantity {dimensionless}
  0,                                      ! Material Cost {$}
  CostPerArea;                            ! Material Cost Units

