
OS:Version,
  {5f1b61ff-39ee-4ec4-9b63-e587bd940e87}, ! Handle
  0.9.3;                                  ! Version Identifier

OS:Construction,
  {d98e5caf-942e-4878-9c19-8366b72ca518}, ! Handle
  90.1-2001 Res B14 Ext Slab Unheated - 4in Slab without Carpet, ! Name
  ,                                       ! Surface Rendering Name
  {b71f0b20-2f69-4fb3-a393-fe465c07b3cf}; ! Layer 1

OS:Material,
  {b71f0b20-2f69-4fb3-a393-fe465c07b3cf}, ! Handle
  MAT-CC05 4 HW CONCRETE,                 ! Name
  Rough,                                  ! Roughness
  0.1016,                                 ! Thickness {m}
  1.311,                                  ! Conductivity {W/m-K}
  2240,                                   ! Density {kg/m3}
  836.8,                                  ! Specific Heat {J/kg-K}
  0.9,                                    ! Thermal Absorptance
  0.7,                                    ! Solar Absorptance
  0.7;                                    ! Visible Absorptance

OS:ComponentCost:LineItem,
  {cc21b3ac-ef32-4072-ae05-25908a10fc11}, ! Handle
  90.1-2001 Res B14 Ext Slab Unheated - 4in Slab without Carpet, ! Name
  ,                                       ! Type
  Construction,                           ! Line Item Type
  90.1-2001 Res B14 Ext Slab Unheated - 4in Slab without Carpet, ! Item Name
  ,                                       ! Object End Use Key
  ,                                       ! Quantity {dimensionless}
  45.52,                                  ! Material Cost {$}
  CostPerArea;                            ! Material Cost Units

