
OS:Version,
  {0aab21cb-c6cf-4585-a417-73c46981669e}, ! Handle
  0.9.3;                                  ! Version Identifier

OS:WindowMaterial:Glazing,
  {2b274ab1-d5d6-4a54-ab2b-7236c0a66cd8}, ! Handle
  Theoretical Glass [508],                ! Name
  SpectralAverage,                        ! Optical Data Type
  ,                                       ! Window Glass Spectral Data Set Name
  0.003,                                  ! Thickness {m}
  0.245336,                               ! Solar Transmittance at Normal Incidence
  0.704664,                               ! Front Side Solar Reflectance at Normal Incidence
  0.704664,                               ! Back Side Solar Reflectance at Normal Incidence
  0.320998,                               ! Visible Transmittance at Normal Incidence
  0.629002,                               ! Front Side Visible Reflectance at Normal Incidence
  0.629002,                               ! Back Side Visible Reflectance at Normal Incidence
  0,                                      ! Infrared Transmittance at Normal Incidence
  0.9,                                    ! Front Side Infrared Hemispherical Emissivity
  0.9,                                    ! Back Side Infrared Hemispherical Emissivity
  0.0150049;                              ! Conductivity {W/m-K}

OS:Construction,
  {80494824-9a7c-4abc-a6d3-0889344e548c}, ! Handle
  90.1 Windows Window Fixed 2326 Brk-HptMpr-Std-ClrPye, ! Name
  ,                                       ! Surface Rendering Name
  {2b274ab1-d5d6-4a54-ab2b-7236c0a66cd8}; ! Layer 1

OS:ComponentCost:LineItem,
  {4c708ad0-4a3e-4abc-a291-520d30df988f}, ! Handle
  90.1 Windows Window Fixed 2326 Brk-HptMpr-Std-ClrPye, ! Name
  ,                                       ! Type
  Construction,                           ! Line Item Type
  90.1 Windows Window Fixed 2326 Brk-HptMpr-Std-ClrPye, ! Item Name
  ,                                       ! Object End Use Key
  ,                                       ! Quantity {dimensionless}
  0,                                      ! Material Cost {$}
  CostPerArea;                            ! Material Cost Units

