
OS:Version,
  {5768f003-47a6-4390-87d4-d4f707ea53b3}, ! Handle
  0.9.3;                                  ! Version Identifier

OS:Construction,
  {720e49cc-ce2a-4a98-8dc3-a74b8e3c5528}, ! Handle
  90.1 Constructions Roof Metal Building NR, ! Name
  ,                                       ! Surface Rendering Name
  {0715f035-10de-40c1-8b29-c0d4d9083f92}, ! Layer 1
  {cd3e4706-fc06-4ef1-b992-4027129f6d0c}; ! Layer 2

OS:Material,
  {0715f035-10de-40c1-8b29-c0d4d9083f92}, ! Handle
  Metal Roofing,                          ! Name
  MediumSmooth,                           ! Roughness
  0.001524,                               ! Thickness {m}
  45.006,                                 ! Conductivity {W/m-K}
  7680,                                   ! Density {kg/m3}
  418.4,                                  ! Specific Heat {J/kg-K}
  0.9,                                    ! Thermal Absorptance
  0.7,                                    ! Solar Absorptance
  0.3;                                    ! Visible Absorptance

OS:Material,
  {cd3e4706-fc06-4ef1-b992-4027129f6d0c}, ! Handle
  Roof Insulation [55],                   ! Name
  MediumRough,                            ! Roughness
  0.00674077,                             ! Thickness {m}
  0.049,                                  ! Conductivity {W/m-K}
  265,                                    ! Density {kg/m3}
  836.8,                                  ! Specific Heat {J/kg-K}
  0.9,                                    ! Thermal Absorptance
  0.7,                                    ! Solar Absorptance
  0.7;                                    ! Visible Absorptance

OS:ComponentCost:LineItem,
  {99601232-4110-4456-9350-3952bb04346e}, ! Handle
  90.1 Constructions Roof Metal Building NR, ! Name
  ,                                       ! Type
  Construction,                           ! Line Item Type
  90.1 Constructions Roof Metal Building NR, ! Item Name
  ,                                       ! Object End Use Key
  ,                                       ! Quantity {dimensionless}
  33.1,                                   ! Material Cost {$}
  CostPerArea;                            ! Material Cost Units

OS:ComponentData,
  {57b37d7c-300b-48f6-af44-d3dd863a1a36}, ! Handle
  Component Data 1,                       ! Name
  {b181ae10-12b1-44f7-8918-8a0361fd0702}, ! UUID
  {81730b78-2216-4484-bcea-5606c525247f}, ! Version UUID
  1363980991,                             ! Creation Timestamp
  1363980991,                             ! Version Timestamp
  {720e49cc-ce2a-4a98-8dc3-a74b8e3c5528}, ! Name of Object 1
  {0715f035-10de-40c1-8b29-c0d4d9083f92}, ! Name of Object 2
  {cd3e4706-fc06-4ef1-b992-4027129f6d0c}, ! Name of Object 3
  {99601232-4110-4456-9350-3952bb04346e}; ! Name of Object 4

