
OS:Version,
  {70058271-08fd-4d90-9b8d-55e4971b2ffa}, ! Handle
  0.9.3;                                  ! Version Identifier

OS:Construction,
  {9d5e937f-c6f1-4c9e-9753-ab9e49e26e79}, ! Handle
  90.1 Constructions Roof Metal Building NR, ! Name
  ,                                       ! Surface Rendering Name
  {86964500-aaa7-416e-ba05-69040554a4f5}, ! Layer 1
  {99537e29-03ee-4331-be04-679b54bbff3d}; ! Layer 2

OS:Material,
  {86964500-aaa7-416e-ba05-69040554a4f5}, ! Handle
  Metal Roofing,                          ! Name
  MediumSmooth,                           ! Roughness
  0.001524,                               ! Thickness {m}
  45.006,                                 ! Conductivity {W/m-K}
  7680,                                   ! Density {kg/m3}
  418.4,                                  ! Specific Heat {J/kg-K}
  0.9,                                    ! Thermal Absorptance
  0.7,                                    ! Solar Absorptance
  0.3;                                    ! Visible Absorptance

OS:Material,
  {99537e29-03ee-4331-be04-679b54bbff3d}, ! Handle
  Roof Insulation [55],                   ! Name
  MediumRough,                            ! Roughness
  0.00674077,                             ! Thickness {m}
  0.049,                                  ! Conductivity {W/m-K}
  265,                                    ! Density {kg/m3}
  836.8,                                  ! Specific Heat {J/kg-K}
  0.9,                                    ! Thermal Absorptance
  0.7,                                    ! Solar Absorptance
  0.7;                                    ! Visible Absorptance

OS:ComponentCost:LineItem,
  {c9a6fcdd-653b-4082-adc9-56aa75cd3d66}, ! Handle
  90.1 Constructions Roof Metal Building NR, ! Name
  ,                                       ! Type
  Construction,                           ! Line Item Type
  90.1 Constructions Roof Metal Building NR, ! Item Name
  ,                                       ! Object End Use Key
  ,                                       ! Quantity {dimensionless}
  33.1,                                   ! Material Cost {$}
  CostPerArea;                            ! Material Cost Units

