
OS:Version,
  {bf469cb0-1f52-40f5-9e2b-bfc4e35b0b0c}, ! Handle
  0.9.3;                                  ! Version Identifier

OS:Construction,
  {accbe18c-e5c0-4bf1-9754-2a425b3cb37f}, ! Handle
  AEDG-SmOffice 6B Ext Wall Spandrel,     ! Name
  ,                                       ! Surface Rendering Name
  {30e67ff6-bf43-4699-b567-e1b92d29fe4d}, ! Layer 1
  {9c1d409a-3341-4d72-8dce-298257d581c8}, ! Layer 2
  {9c1c998b-2453-415f-a8ea-543bca7e9e36}; ! Layer 3

OS:Material,
  {30e67ff6-bf43-4699-b567-e1b92d29fe4d}, ! Handle
  SpandrelGlass,                          ! Name
  Smooth,                                 ! Roughness
  0.007,                                  ! Thickness {m}
  45.31,                                  ! Conductivity {W/m-K}
  7833.02,                                ! Density {kg/m3}
  500,                                    ! Specific Heat {J/kg-K}
  0.9,                                    ! Thermal Absorptance
  0.23,                                   ! Solar Absorptance
  0.23;                                   ! Visible Absorptance

OS:Material,
  {9c1d409a-3341-4d72-8dce-298257d581c8}, ! Handle
  Wall Insulation [52],                   ! Name
  MediumRough,                            ! Roughness
  0.113464,                               ! Thickness {m}
  0.045,                                  ! Conductivity {W/m-K}
  265,                                    ! Density {kg/m3}
  836.8,                                  ! Specific Heat {J/kg-K}
  0.9,                                    ! Thermal Absorptance
  0.7,                                    ! Solar Absorptance
  0.7;                                    ! Visible Absorptance

OS:Material,
  {9c1c998b-2453-415f-a8ea-543bca7e9e36}, ! Handle
  1/2IN Gypsum,                           ! Name
  Smooth,                                 ! Roughness
  0.01271,                                ! Thickness {m}
  0.16,                                   ! Conductivity {W/m-K}
  784.9,                                  ! Density {kg/m3}
  830,                                    ! Specific Heat {J/kg-K}
  0.9,                                    ! Thermal Absorptance
  0.92,                                   ! Solar Absorptance
  0.92;                                   ! Visible Absorptance

OS:ComponentCost:LineItem,
  {4906f271-2b05-4c40-be54-4218d27843b8}, ! Handle
  AEDG-SmOffice 6B Ext Wall Spandrel,     ! Name
  ,                                       ! Type
  Construction,                           ! Line Item Type
  AEDG-SmOffice 6B Ext Wall Spandrel,     ! Item Name
  ,                                       ! Object End Use Key
  ,                                       ! Quantity {dimensionless}
  80.18,                                  ! Material Cost {$}
  CostPerArea;                            ! Material Cost Units

