
OS:Version,
  {dfd2e479-e9ff-436a-a2ef-4c805f63b106}, ! Handle
  0.9.3;                                  ! Version Identifier

OS:Material,
  {557a1601-5b91-4874-b8be-cc90435ea3f7}, ! Handle
  MAT-CC05 8 HW CONCRETE,                 ! Name
  Rough,                                  ! Roughness
  0.20321,                                ! Thickness {m}
  1.311,                                  ! Conductivity {W/m-K}
  2240,                                   ! Density {kg/m3}
  836.8,                                  ! Specific Heat {J/kg-K}
  0.9,                                    ! Thermal Absorptance
  0.7,                                    ! Solar Absorptance
  0.7;                                    ! Visible Absorptance

OS:ComponentCost:LineItem,
  {b8d64877-0d07-4aa8-90ae-896cb2821b01}, ! Handle
  189.1-2009 Nonres 1A Ext Slab Unheated - 8in Slab without Carpet, ! Name
  ,                                       ! Type
  Construction,                           ! Line Item Type
  189.1-2009 Nonres 1A Ext Slab Unheated - 8in Slab without Carpet, ! Item Name
  ,                                       ! Object End Use Key
  ,                                       ! Quantity {dimensionless}
  45.52,                                  ! Material Cost {$}
  CostPerArea;                            ! Material Cost Units

OS:Construction,
  {e211b58f-adac-4c96-a78c-664652682fe5}, ! Handle
  189.1-2009 Nonres 1A Ext Slab Unheated - 8in Slab without Carpet, ! Name
  ,                                       ! Surface Rendering Name
  {557a1601-5b91-4874-b8be-cc90435ea3f7}; ! Layer 1

