
OS:Version,
  {f6884204-7f9f-47a0-84df-1fc0221125c7}, ! Handle
  0.9.3;                                  ! Version Identifier

OS:Construction,
  {adcf789f-ba6e-4272-9b6d-b9d3417fbfd5}, ! Handle
  189.1-2009 Nonres 1A Ext Slab Unheated - 8in Slab without Carpet, ! Name
  ,                                       ! Surface Rendering Name
  {280e8961-54fe-40de-93ab-4572013e6f58}; ! Layer 1

OS:Material,
  {280e8961-54fe-40de-93ab-4572013e6f58}, ! Handle
  MAT-CC05 8 HW CONCRETE,                 ! Name
  Rough,                                  ! Roughness
  0.20321,                                ! Thickness {m}
  1.311,                                  ! Conductivity {W/m-K}
  2240,                                   ! Density {kg/m3}
  836.8,                                  ! Specific Heat {J/kg-K}
  0.9,                                    ! Thermal Absorptance
  0.7,                                    ! Solar Absorptance
  0.7;                                    ! Visible Absorptance

OS:ComponentCost:LineItem,
  {b8d514d0-db17-4d22-b61e-ea85af7c0b0f}, ! Handle
  189.1-2009 Nonres 1A Ext Slab Unheated - 8in Slab without Carpet, ! Name
  ,                                       ! Type
  Construction,                           ! Line Item Type
  189.1-2009 Nonres 1A Ext Slab Unheated - 8in Slab without Carpet, ! Item Name
  ,                                       ! Object End Use Key
  ,                                       ! Quantity {dimensionless}
  45.52,                                  ! Material Cost {$}
  CostPerArea;                            ! Material Cost Units

OS:ComponentData,
  {f38d789a-3acc-4329-98a6-be10a572769c}, ! Handle
  Component Data 1,                       ! Name
  {b5921a4c-a37a-4274-9437-a613078ae83c}, ! UUID
  {d23d579f-9ff1-40db-8f3e-c220660f2828}, ! Version UUID
  1363979819,                             ! Creation Timestamp
  1363979819,                             ! Version Timestamp
  {adcf789f-ba6e-4272-9b6d-b9d3417fbfd5}, ! Name of Object 1
  {280e8961-54fe-40de-93ab-4572013e6f58}, ! Name of Object 2
  {b8d514d0-db17-4d22-b61e-ea85af7c0b0f}; ! Name of Object 3

