
OS:Version,
  {98d84080-b245-4bc8-aa62-861fb55f109a}, ! Handle
  0.9.3;                                  ! Version Identifier

OS:Material,
  {2fd5210d-3577-4a41-b028-bdec4d089262}, ! Handle
  1/2IN Gypsum,                           ! Name
  Smooth,                                 ! Roughness
  0.01271,                                ! Thickness {m}
  0.16,                                   ! Conductivity {W/m-K}
  784.9,                                  ! Density {kg/m3}
  830,                                    ! Specific Heat {J/kg-K}
  0.9,                                    ! Thermal Absorptance
  0.92,                                   ! Solar Absorptance
  0.92;                                   ! Visible Absorptance

OS:Material,
  {7d8c286b-34bc-483d-b616-744ab33bf6da}, ! Handle
  Roof Insulation [2],                    ! Name
  MediumRough,                            ! Roughness
  0.221604,                               ! Thickness {m}
  0.049,                                  ! Conductivity {W/m-K}
  265,                                    ! Density {kg/m3}
  836.8,                                  ! Specific Heat {J/kg-K}
  0.9,                                    ! Thermal Absorptance
  0.7,                                    ! Solar Absorptance
  0.7;                                    ! Visible Absorptance

OS:Construction,
  {dc678acf-7216-4163-afbf-8b5199cfc62a}, ! Handle
  90.1-1999 Nonres B11 Roof Attic and Other, ! Name
  ,                                       ! Surface Rendering Name
  {4c341ef8-add9-4edb-b580-4fb84d55b21c}, ! Layer 1
  {3929ef70-f13b-438d-b60f-9202a5d34808}, ! Layer 2
  {7d8c286b-34bc-483d-b616-744ab33bf6da}, ! Layer 3
  {2fd5210d-3577-4a41-b028-bdec4d089262}; ! Layer 4

OS:Material,
  {4c341ef8-add9-4edb-b580-4fb84d55b21c}, ! Handle
  Wood Shingles,                          ! Name
  VeryRough,                              ! Roughness
  0.0178,                                 ! Thickness {m}
  0.115,                                  ! Conductivity {W/m-K}
  513,                                    ! Density {kg/m3}
  1255,                                   ! Specific Heat {J/kg-K}
  0.9,                                    ! Thermal Absorptance
  0.78,                                   ! Solar Absorptance
  0.78;                                   ! Visible Absorptance

OS:Material,
  {3929ef70-f13b-438d-b60f-9202a5d34808}, ! Handle
  1IN Wood Decking,                       ! Name
  MediumSmooth,                           ! Roughness
  0.0254,                                 ! Thickness {m}
  0.1211,                                 ! Conductivity {W/m-K}
  593,                                    ! Density {kg/m3}
  2510,                                   ! Specific Heat {J/kg-K}
  0.9,                                    ! Thermal Absorptance
  0.78,                                   ! Solar Absorptance
  0.78;                                   ! Visible Absorptance

OS:ComponentCost:LineItem,
  {05f823e8-70d9-4f23-8f6b-e5d86f542e51}, ! Handle
  90.1-1999 Nonres B11 Roof Attic and Other, ! Name
  ,                                       ! Type
  Construction,                           ! Line Item Type
  90.1-1999 Nonres B11 Roof Attic and Other, ! Item Name
  ,                                       ! Object End Use Key
  ,                                       ! Quantity {dimensionless}
  33.39,                                  ! Material Cost {$}
  CostPerArea;                            ! Material Cost Units

