
OS:Version,
  {d8a1c619-608b-4e71-b4c4-fc7b785f45e7}, ! Handle
  0.9.3;                                  ! Version Identifier

OS:Construction,
  {32bf8db5-5417-4413-95ca-c55ce88cd2a0}, ! Handle
  90.1-1999 Nonres B3 Int Wall,           ! Name
  ,                                       ! Surface Rendering Name
  {e424882f-9379-48cc-8c02-90bcc5d8887e}, ! Layer 1
  {e424882f-9379-48cc-8c02-90bcc5d8887e}; ! Layer 2

OS:Material,
  {e424882f-9379-48cc-8c02-90bcc5d8887e}, ! Handle
  GP01 1/2 GYPSUM,                        ! Name
  Smooth,                                 ! Roughness
  0.01271,                                ! Thickness {m}
  0.16,                                   ! Conductivity {W/m-K}
  800,                                    ! Density {kg/m3}
  1090,                                   ! Specific Heat {J/kg-K}
  0.9,                                    ! Thermal Absorptance
  0.7,                                    ! Solar Absorptance
  0.5;                                    ! Visible Absorptance

OS:ComponentCost:LineItem,
  {6406803e-4f5c-4252-91f5-3f6448f1d857}, ! Handle
  90.1-1999 Nonres B3 Int Wall,           ! Name
  ,                                       ! Type
  Construction,                           ! Line Item Type
  90.1-1999 Nonres B3 Int Wall,           ! Item Name
  ,                                       ! Object End Use Key
  ,                                       ! Quantity {dimensionless}
  0,                                      ! Material Cost {$}
  CostPerArea;                            ! Material Cost Units

OS:ComponentData,
  {fa748fa1-6f2e-4848-8e93-98d104fc306e}, ! Handle
  Component Data 1,                       ! Name
  {6a8d9391-ef56-4f6c-a10c-fa57b5f38b0b}, ! UUID
  {25b2f1a5-a3cd-4521-bbcf-0b636c17ddb2}, ! Version UUID
  1363981046,                             ! Creation Timestamp
  1363981046,                             ! Version Timestamp
  {32bf8db5-5417-4413-95ca-c55ce88cd2a0}, ! Name of Object 1
  {e424882f-9379-48cc-8c02-90bcc5d8887e}, ! Name of Object 2
  {6406803e-4f5c-4252-91f5-3f6448f1d857}; ! Name of Object 3

