
OS:Version,
  {cdb0dffa-f0f6-4448-9983-fa7a8096d0a3}, ! Handle
  0.9.3;                                  ! Version Identifier

OS:Material,
  {8d15c91f-e9f8-4a21-a32c-fdb5b7cd7c6b}, ! Handle
  Roof Insulation,                        ! Name
  MediumRough,                            ! Roughness
  0.124958,                               ! Thickness {m}
  0.049,                                  ! Conductivity {W/m-K}
  265,                                    ! Density {kg/m3}
  836.8,                                  ! Specific Heat {J/kg-K}
  0.9,                                    ! Thermal Absorptance
  0.7,                                    ! Solar Absorptance
  0.7;                                    ! Visible Absorptance

OS:Material,
  {b6ba292b-f78c-4f7a-aa4e-2bbdbe79b79c}, ! Handle
  Roof Membrane,                          ! Name
  VeryRough,                              ! Roughness
  0.0095,                                 ! Thickness {m}
  0.16,                                   ! Conductivity {W/m-K}
  1121.29,                                ! Density {kg/m3}
  1460,                                   ! Specific Heat {J/kg-K}
  0.9,                                    ! Thermal Absorptance
  0.7,                                    ! Solar Absorptance
  0.7;                                    ! Visible Absorptance

OS:Construction,
  {79f103af-b9f9-4fc5-8d39-cccd1324c08c}, ! Handle
  90.1-2001 Nonres B14 Roof IEAD,         ! Name
  ,                                       ! Surface Rendering Name
  {b6ba292b-f78c-4f7a-aa4e-2bbdbe79b79c}, ! Layer 1
  {8d15c91f-e9f8-4a21-a32c-fdb5b7cd7c6b}, ! Layer 2
  {21d81bc0-9ed6-4dfd-af09-156eb13b4e3a}; ! Layer 3

OS:Material,
  {21d81bc0-9ed6-4dfd-af09-156eb13b4e3a}, ! Handle
  Metal Decking,                          ! Name
  MediumSmooth,                           ! Roughness
  0.001524,                               ! Thickness {m}
  45.006,                                 ! Conductivity {W/m-K}
  7680,                                   ! Density {kg/m3}
  418.4,                                  ! Specific Heat {J/kg-K}
  0.9,                                    ! Thermal Absorptance
  0.7,                                    ! Solar Absorptance
  0.3;                                    ! Visible Absorptance

OS:ComponentCost:LineItem,
  {120cde3c-80d9-4d85-b3b9-f91c8b55fb4e}, ! Handle
  90.1-2001 Nonres B14 Roof IEAD,         ! Name
  ,                                       ! Type
  Construction,                           ! Line Item Type
  90.1-2001 Nonres B14 Roof IEAD,         ! Item Name
  ,                                       ! Object End Use Key
  ,                                       ! Quantity {dimensionless}
  49.208,                                 ! Material Cost {$}
  CostPerArea;                            ! Material Cost Units

