
OS:Version,
  {571fc555-e995-41f6-b75b-c3fee559f0d8}, ! Handle
  0.9.3;                                  ! Version Identifier

OS:Material,
  {8cde6c12-83e3-4773-81cf-1c70e648669d}, ! Handle
  Wall Insulation,                        ! Name
  MediumRough,                            ! Roughness
  0.0598725,                              ! Thickness {m}
  0.045,                                  ! Conductivity {W/m-K}
  265,                                    ! Density {kg/m3}
  836.8,                                  ! Specific Heat {J/kg-K}
  0.9,                                    ! Thermal Absorptance
  0.7,                                    ! Solar Absorptance
  0.7;                                    ! Visible Absorptance

OS:Material,
  {95c5874d-9c6e-4e88-9c80-7068898be39a}, ! Handle
  Metal Siding,                           ! Name
  Smooth,                                 ! Roughness
  0.0015,                                 ! Thickness {m}
  44.96,                                  ! Conductivity {W/m-K}
  7688.86,                                ! Density {kg/m3}
  410,                                    ! Specific Heat {J/kg-K}
  0.9,                                    ! Thermal Absorptance
  0.2,                                    ! Solar Absorptance
  0.2;                                    ! Visible Absorptance

OS:Material,
  {e01a1d6f-fbe3-4d0c-aa04-6575a4a207cf}, ! Handle
  1/2IN Gypsum,                           ! Name
  Smooth,                                 ! Roughness
  0.01271,                                ! Thickness {m}
  0.16,                                   ! Conductivity {W/m-K}
  784.9,                                  ! Density {kg/m3}
  830,                                    ! Specific Heat {J/kg-K}
  0.9,                                    ! Thermal Absorptance
  0.92,                                   ! Solar Absorptance
  0.92;                                   ! Visible Absorptance

OS:ComponentCost:LineItem,
  {bc634047-bdb1-4034-a354-d85c50f88936}, ! Handle
  90.1-1999 Nonres B1 Ext Wall Metal Building, ! Name
  ,                                       ! Type
  Construction,                           ! Line Item Type
  90.1-1999 Nonres B1 Ext Wall Metal Building, ! Item Name
  ,                                       ! Object End Use Key
  ,                                       ! Quantity {dimensionless}
  98.78,                                  ! Material Cost {$}
  CostPerArea;                            ! Material Cost Units

OS:Construction,
  {31838ecf-5e09-4008-9b7a-bb8f8bc415f2}, ! Handle
  90.1-1999 Nonres B1 Ext Wall Metal Building, ! Name
  ,                                       ! Surface Rendering Name
  {95c5874d-9c6e-4e88-9c80-7068898be39a}, ! Layer 1
  {8cde6c12-83e3-4773-81cf-1c70e648669d}, ! Layer 2
  {e01a1d6f-fbe3-4d0c-aa04-6575a4a207cf}; ! Layer 3

