
OS:Version,
  {ce656917-5782-4105-a98f-768a3a7998c0}, ! Handle
  0.9.3;                                  ! Version Identifier

OS:Construction,
  {44b2fea9-772c-4235-9b06-ad79f358fcee}, ! Handle
  90.1 Windows Window Fixed 2518 Vnl-GrnSbe-Std-Clr, ! Name
  ,                                       ! Surface Rendering Name
  {fc7588c1-2a05-4e40-ab5f-9159d76d0c79}; ! Layer 1

OS:WindowMaterial:Glazing,
  {fc7588c1-2a05-4e40-ab5f-9159d76d0c79}, ! Handle
  Theoretical Glass [478],                ! Name
  SpectralAverage,                        ! Optical Data Type
  ,                                       ! Window Glass Spectral Data Set Name
  0.003,                                  ! Thickness {m}
  0.266388,                               ! Solar Transmittance at Normal Incidence
  0.683612,                               ! Front Side Solar Reflectance at Normal Incidence
  0.683612,                               ! Back Side Solar Reflectance at Normal Incidence
  0.370537,                               ! Visible Transmittance at Normal Incidence
  0.579463,                               ! Front Side Visible Reflectance at Normal Incidence
  0.579463,                               ! Back Side Visible Reflectance at Normal Incidence
  0,                                      ! Infrared Transmittance at Normal Incidence
  0.9,                                    ! Front Side Infrared Hemispherical Emissivity
  0.9,                                    ! Back Side Infrared Hemispherical Emissivity
  0.00956575;                             ! Conductivity {W/m-K}

OS:ComponentCost:LineItem,
  {f05c6c21-ffa6-47c0-8e4f-9b5335e320e3}, ! Handle
  90.1 Windows Window Fixed 2518 Vnl-GrnSbe-Std-Clr, ! Name
  ,                                       ! Type
  Construction,                           ! Line Item Type
  90.1 Windows Window Fixed 2518 Vnl-GrnSbe-Std-Clr, ! Item Name
  ,                                       ! Object End Use Key
  ,                                       ! Quantity {dimensionless}
  0,                                      ! Material Cost {$}
  CostPerArea;                            ! Material Cost Units

