
OS:Version,
  {06473e01-54a7-4810-8e48-d9fd20b22861}, ! Handle
  0.9.3;                                  ! Version Identifier

OS:Construction,
  {335b0208-8126-4e0b-b5ab-827926616afd}, ! Handle
  90.1 Windows Window Fixed 2518 Vnl-GrnSbe-Std-Clr, ! Name
  ,                                       ! Surface Rendering Name
  {bf796420-bb69-4e9a-a009-dc6086f2cc5f}; ! Layer 1

OS:WindowMaterial:Glazing,
  {bf796420-bb69-4e9a-a009-dc6086f2cc5f}, ! Handle
  Theoretical Glass [478],                ! Name
  SpectralAverage,                        ! Optical Data Type
  ,                                       ! Window Glass Spectral Data Set Name
  0.003,                                  ! Thickness {m}
  0.266388,                               ! Solar Transmittance at Normal Incidence
  0.683612,                               ! Front Side Solar Reflectance at Normal Incidence
  0.683612,                               ! Back Side Solar Reflectance at Normal Incidence
  0.370537,                               ! Visible Transmittance at Normal Incidence
  0.579463,                               ! Front Side Visible Reflectance at Normal Incidence
  0.579463,                               ! Back Side Visible Reflectance at Normal Incidence
  0,                                      ! Infrared Transmittance at Normal Incidence
  0.9,                                    ! Front Side Infrared Hemispherical Emissivity
  0.9,                                    ! Back Side Infrared Hemispherical Emissivity
  0.00956575;                             ! Conductivity {W/m-K}

OS:ComponentCost:LineItem,
  {a5e14938-4172-4328-9231-bd99728c4927}, ! Handle
  90.1 Windows Window Fixed 2518 Vnl-GrnSbe-Std-Clr, ! Name
  ,                                       ! Type
  Construction,                           ! Line Item Type
  90.1 Windows Window Fixed 2518 Vnl-GrnSbe-Std-Clr, ! Item Name
  ,                                       ! Object End Use Key
  ,                                       ! Quantity {dimensionless}
  0,                                      ! Material Cost {$}
  CostPerArea;                            ! Material Cost Units

OS:ComponentData,
  {904fd69e-cc49-489f-9b71-399575765a1f}, ! Handle
  Component Data 1,                       ! Name
  {af0ec875-1fbe-44b5-bfeb-45c766c62b42}, ! UUID
  {cf7faa37-7de7-485b-bd05-f3e9a6a6bf5d}, ! Version UUID
  1363981022,                             ! Creation Timestamp
  1363981022,                             ! Version Timestamp
  {335b0208-8126-4e0b-b5ab-827926616afd}, ! Name of Object 1
  {bf796420-bb69-4e9a-a009-dc6086f2cc5f}, ! Name of Object 2
  {a5e14938-4172-4328-9231-bd99728c4927}; ! Name of Object 3

