
OS:Version,
  {16e026dd-29be-4892-a0a9-f05217ac20d5}, !- Handle
  1.1.0;                                  !- Version Identifier

OS:Construction,
  {88cc467f-04bd-42cf-b514-e0ab0f019810}, !- Handle
  Trp LoE Film (88) Clr 3mm/6mm Air,      !- Name
  ,                                       !- Surface Rendering Name
  {8a7f602a-e59e-470e-8dcb-84d880bc9a1d}, !- Layer 1
  {6393442a-c65c-45d6-91ae-380c1b60ca6c}, !- Layer 2
  {d9c8318a-b5e3-4ff3-bf3d-360c47123af0}, !- Layer 3
  {6393442a-c65c-45d6-91ae-380c1b60ca6c}, !- Layer 4
  {8a7f602a-e59e-470e-8dcb-84d880bc9a1d}; !- Layer 5

OS:WindowMaterial:Glazing,
  {8a7f602a-e59e-470e-8dcb-84d880bc9a1d}, !- Handle
  CLEAR 3MM,                              !- Name
  SpectralAverage,                        !- Optical Data Type
  ,                                       !- Window Glass Spectral Data Set Name
  0.003,                                  !- Thickness {m}
  0.837,                                  !- Solar Transmittance at Normal Incidence
  0.075,                                  !- Front Side Solar Reflectance at Normal Incidence
  0.075,                                  !- Back Side Solar Reflectance at Normal Incidence
  0.898,                                  !- Visible Transmittance at Normal Incidence
  0.081,                                  !- Front Side Visible Reflectance at Normal Incidence
  0.081,                                  !- Back Side Visible Reflectance at Normal Incidence
  0,                                      !- Infrared Transmittance at Normal Incidence
  0.84,                                   !- Front Side Infrared Hemispherical Emissivity
  0.84,                                   !- Back Side Infrared Hemispherical Emissivity
  0.9;                                    !- Conductivity {W/m-K}

OS:WindowMaterial:Gas,
  {6393442a-c65c-45d6-91ae-380c1b60ca6c}, !- Handle
  AIR 6MM,                                !- Name
  Air,                                    !- Gas Type
  0.0063;                                 !- Thickness {m}

OS:WindowMaterial:Glazing,
  {d9c8318a-b5e3-4ff3-bf3d-360c47123af0}, !- Handle
  COATED POLY-88,                         !- Name
  SpectralAverage,                        !- Optical Data Type
  ,                                       !- Window Glass Spectral Data Set Name
  0.00051,                                !- Thickness {m}
  0.656,                                  !- Solar Transmittance at Normal Incidence
  0.249,                                  !- Front Side Solar Reflectance at Normal Incidence
  0.227,                                  !- Back Side Solar Reflectance at Normal Incidence
  0.868,                                  !- Visible Transmittance at Normal Incidence
  0.064,                                  !- Front Side Visible Reflectance at Normal Incidence
  0.06,                                   !- Back Side Visible Reflectance at Normal Incidence
  0,                                      !- Infrared Transmittance at Normal Incidence
  0.136,                                  !- Front Side Infrared Hemispherical Emissivity
  0.72,                                   !- Back Side Infrared Hemispherical Emissivity
  0.14;                                   !- Conductivity {W/m-K}

