
OS:Version,
  {c229a7a7-5009-49e3-8ff2-94ddbbc7c4da}, ! Handle
  0.9.3;                                  ! Version Identifier

OS:Construction,
  {83f11633-de82-4292-9ccd-c630c8f4deaf}, ! Handle
  90.1-1999 Nonres B21 Int Wall,          ! Name
  ,                                       ! Surface Rendering Name
  {34a98d7b-bbba-433d-ad7a-cadcdadcd191}, ! Layer 1
  {34a98d7b-bbba-433d-ad7a-cadcdadcd191}; ! Layer 2

OS:Material,
  {34a98d7b-bbba-433d-ad7a-cadcdadcd191}, ! Handle
  GP01 1/2 GYPSUM,                        ! Name
  Smooth,                                 ! Roughness
  0.01271,                                ! Thickness {m}
  0.16,                                   ! Conductivity {W/m-K}
  800,                                    ! Density {kg/m3}
  1090,                                   ! Specific Heat {J/kg-K}
  0.9,                                    ! Thermal Absorptance
  0.7,                                    ! Solar Absorptance
  0.5;                                    ! Visible Absorptance

OS:ComponentCost:LineItem,
  {1d84607e-ffbd-478b-8f6b-3840c84d17f5}, ! Handle
  90.1-1999 Nonres B21 Int Wall,          ! Name
  ,                                       ! Type
  Construction,                           ! Line Item Type
  90.1-1999 Nonres B21 Int Wall,          ! Item Name
  ,                                       ! Object End Use Key
  ,                                       ! Quantity {dimensionless}
  0,                                      ! Material Cost {$}
  CostPerArea;                            ! Material Cost Units

OS:ComponentData,
  {d3ad5fa7-7008-4eac-a7f5-fff268d014a3}, ! Handle
  Component Data 1,                       ! Name
  {386489ca-6cfa-4802-bd6d-f08e37e18a33}, ! UUID
  {b416198c-422e-4ea2-8fa5-0e340bf9634d}, ! Version UUID
  1363981132,                             ! Creation Timestamp
  1363981132,                             ! Version Timestamp
  {83f11633-de82-4292-9ccd-c630c8f4deaf}, ! Name of Object 1
  {34a98d7b-bbba-433d-ad7a-cadcdadcd191}, ! Name of Object 2
  {1d84607e-ffbd-478b-8f6b-3840c84d17f5}; ! Name of Object 3

