
OS:Version,
  {fc5fc14e-2183-4775-9db5-d2ae26907c36}, ! Handle
  0.9.3;                                  ! Version Identifier

OS:Material,
  {78bc0b99-0969-46bf-aae3-2c46e6cb5551}, ! Handle
  GP01 1/2 GYPSUM 1,                      ! Name
  Smooth,                                 ! Roughness
  0.01271,                                ! Thickness {m}
  0.16,                                   ! Conductivity {W/m-K}
  800,                                    ! Density {kg/m3}
  1090,                                   ! Specific Heat {J/kg-K}
  0.9,                                    ! Thermal Absorptance
  0.7,                                    ! Solar Absorptance
  0.5;                                    ! Visible Absorptance

OS:ComponentCost:LineItem,
  {cda7e4ec-f3bd-4577-ad93-b6e0b6b3c26c}, ! Handle
  90.1-2001 Res B11 Int Wall,             ! Name
  ,                                       ! Type
  Construction,                           ! Line Item Type
  90.1-2001 Res B11 Int Wall,             ! Item Name
  ,                                       ! Object End Use Key
  ,                                       ! Quantity {dimensionless}
  0,                                      ! Material Cost {$}
  CostPerArea;                            ! Material Cost Units

OS:Material,
  {fa64c489-fb6e-4781-a119-9763ec76b9d6}, ! Handle
  GP01 1/2 GYPSUM,                        ! Name
  Smooth,                                 ! Roughness
  0.01271,                                ! Thickness {m}
  0.16,                                   ! Conductivity {W/m-K}
  800,                                    ! Density {kg/m3}
  1090,                                   ! Specific Heat {J/kg-K}
  0.9,                                    ! Thermal Absorptance
  0.7,                                    ! Solar Absorptance
  0.5;                                    ! Visible Absorptance

OS:Construction,
  {92a0d7ca-3355-4dc8-b53a-3d907cda7bd2}, ! Handle
  90.1-2001 Res B11 Int Wall,             ! Name
  ,                                       ! Surface Rendering Name
  {fa64c489-fb6e-4781-a119-9763ec76b9d6}, ! Layer 1
  {fa64c489-fb6e-4781-a119-9763ec76b9d6}; ! Layer 2

