
OS:Version,
  {c8bb6d38-ea9f-420d-81fd-cbae01c8a0d8}, ! Handle
  0.9.3;                                  ! Version Identifier

OS:Material,
  {1d6c5e3e-851f-4a1d-a12f-0c057e6cf591}, ! Handle
  Floor Insulation [2],                   ! Name
  MediumRough,                            ! Roughness
  0.0635689,                              ! Thickness {m}
  0.045,                                  ! Conductivity {W/m-K}
  265,                                    ! Density {kg/m3}
  836.8,                                  ! Specific Heat {J/kg-K}
  0.9,                                    ! Thermal Absorptance
  0.7,                                    ! Solar Absorptance
  0.7;                                    ! Visible Absorptance

OS:Construction,
  {b00dc9ca-5c6e-48b0-a963-e0934b6527d1}, ! Handle
  90.1-2004 Res 4B Exposed Floor Mass,    ! Name
  ,                                       ! Surface Rendering Name
  {1d6c5e3e-851f-4a1d-a12f-0c057e6cf591}, ! Layer 1
  {e42aca24-389d-4f45-b055-2305aba661a7}, ! Layer 2
  {e4994c87-2de5-4590-b117-60fa7a640484}; ! Layer 3

OS:Material,
  {e42aca24-389d-4f45-b055-2305aba661a7}, ! Handle
  MAT-CC05 8 HW CONCRETE,                 ! Name
  Rough,                                  ! Roughness
  0.20321,                                ! Thickness {m}
  1.311,                                  ! Conductivity {W/m-K}
  2240,                                   ! Density {kg/m3}
  836.8,                                  ! Specific Heat {J/kg-K}
  0.9,                                    ! Thermal Absorptance
  0.7,                                    ! Solar Absorptance
  0.7;                                    ! Visible Absorptance

OS:Material:NoMass,
  {e4994c87-2de5-4590-b117-60fa7a640484}, ! Handle
  CP02 CARPET PAD,                        ! Name
  VeryRough,                              ! Roughness
  0.21648,                                ! Thermal Resistance {m2-K/W}
  0.9,                                    ! Thermal Absorptance
  0.7,                                    ! Solar Absorptance
  0.8;                                    ! Visible Absorptance

OS:ComponentCost:LineItem,
  {14aa9f06-d4f2-4cd8-b359-196dd1b769b6}, ! Handle
  90.1-2004 Res 4B Exposed Floor Mass,    ! Name
  ,                                       ! Type
  Construction,                           ! Line Item Type
  90.1-2004 Res 4B Exposed Floor Mass,    ! Item Name
  ,                                       ! Object End Use Key
  ,                                       ! Quantity {dimensionless}
  49.612,                                 ! Material Cost {$}
  CostPerArea;                            ! Material Cost Units

