
OS:Version,
  {f79fbb9b-a2ed-4689-b514-b08074eebb9c}, ! Handle
  0.9.3;                                  ! Version Identifier

OS:Construction,
  {373a7c2a-c252-4b25-ad16-89a413264cab}, ! Handle
  AEDG K12 Nonres 3C Attic Floor,         ! Name
  ,                                       ! Surface Rendering Name
  {a364f2ca-85df-4096-af40-b5ebc0d50cde}, ! Layer 1
  {8afe0fe5-8aa0-4d9f-9532-8c9215088c1f}, ! Layer 2
  {4481986e-427f-4d40-b982-6a8ca7efab41}; ! Layer 3

OS:Material,
  {a364f2ca-85df-4096-af40-b5ebc0d50cde}, ! Handle
  1/2IN Gypsum Top,                       ! Name
  Smooth,                                 ! Roughness
  0.01271,                                ! Thickness {m}
  0.16,                                   ! Conductivity {W/m-K}
  784.9,                                  ! Density {kg/m3}
  830,                                    ! Specific Heat {J/kg-K}
  0.9,                                    ! Thermal Absorptance
  0.92,                                   ! Solar Absorptance
  0.92;                                   ! Visible Absorptance

OS:Material,
  {8afe0fe5-8aa0-4d9f-9532-8c9215088c1f}, ! Handle
  AtticFloor Insulation,                  ! Name
  MediumRough,                            ! Roughness
  0.237853,                               ! Thickness {m}
  0.049,                                  ! Conductivity {W/m-K}
  265,                                    ! Density {kg/m3}
  836.8,                                  ! Specific Heat {J/kg-K}
  0.9,                                    ! Thermal Absorptance
  0.7,                                    ! Solar Absorptance
  0.7;                                    ! Visible Absorptance

OS:Material,
  {4481986e-427f-4d40-b982-6a8ca7efab41}, ! Handle
  1/2IN Gypsum Bottom,                    ! Name
  Smooth,                                 ! Roughness
  0.01271,                                ! Thickness {m}
  0.16,                                   ! Conductivity {W/m-K}
  784.9,                                  ! Density {kg/m3}
  830,                                    ! Specific Heat {J/kg-K}
  0.9,                                    ! Thermal Absorptance
  0.92,                                   ! Solar Absorptance
  0.92;                                   ! Visible Absorptance

OS:ComponentCost:LineItem,
  {876d3b7e-f4ad-4dad-8249-4159b23a0647}, ! Handle
  AEDG K12 Nonres 3C Attic Floor,         ! Name
  ,                                       ! Type
  Construction,                           ! Line Item Type
  AEDG K12 Nonres 3C Attic Floor,         ! Item Name
  ,                                       ! Object End Use Key
  ,                                       ! Quantity {dimensionless}
  33.596,                                 ! Material Cost {$}
  CostPerArea;                            ! Material Cost Units

OS:ComponentData,
  {625ebf79-348c-4ea4-b6d1-7020d1d7d1d0}, ! Handle
  Component Data 1,                       ! Name
  {cb8f183c-5a64-4505-927d-8dc2f3d1ee1a}, ! UUID
  {4e86a790-369d-4d1f-802f-8fc394b6b78d}, ! Version UUID
  1363981890,                             ! Creation Timestamp
  1363981890,                             ! Version Timestamp
  {373a7c2a-c252-4b25-ad16-89a413264cab}, ! Name of Object 1
  {a364f2ca-85df-4096-af40-b5ebc0d50cde}, ! Name of Object 2
  {8afe0fe5-8aa0-4d9f-9532-8c9215088c1f}, ! Name of Object 3
  {4481986e-427f-4d40-b982-6a8ca7efab41}, ! Name of Object 4
  {876d3b7e-f4ad-4dad-8249-4159b23a0647}; ! Name of Object 5

