
OS:Version,
  {d88c7cba-3231-45e6-8cd8-710b008630b2}, ! Handle
  0.9.3;                                  ! Version Identifier

OS:ComponentCost:LineItem,
  {02c396fc-4065-4199-be41-afcaa0665f25}, ! Handle
  AEDG K12 Nonres 3C Attic Floor,         ! Name
  ,                                       ! Type
  Construction,                           ! Line Item Type
  AEDG K12 Nonres 3C Attic Floor,         ! Item Name
  ,                                       ! Object End Use Key
  ,                                       ! Quantity {dimensionless}
  33.596,                                 ! Material Cost {$}
  CostPerArea;                            ! Material Cost Units

OS:Material,
  {9a26d884-559f-4b1d-9a5b-fb6d05fbe66d}, ! Handle
  1/2IN Gypsum Top,                       ! Name
  Smooth,                                 ! Roughness
  0.01271,                                ! Thickness {m}
  0.16,                                   ! Conductivity {W/m-K}
  784.9,                                  ! Density {kg/m3}
  830,                                    ! Specific Heat {J/kg-K}
  0.9,                                    ! Thermal Absorptance
  0.92,                                   ! Solar Absorptance
  0.92;                                   ! Visible Absorptance

OS:Material,
  {86352d12-6d14-4500-b600-1e9abd3fdec4}, ! Handle
  AtticFloor Insulation,                  ! Name
  MediumRough,                            ! Roughness
  0.237853,                               ! Thickness {m}
  0.049,                                  ! Conductivity {W/m-K}
  265,                                    ! Density {kg/m3}
  836.8,                                  ! Specific Heat {J/kg-K}
  0.9,                                    ! Thermal Absorptance
  0.7,                                    ! Solar Absorptance
  0.7;                                    ! Visible Absorptance

OS:Construction,
  {33d27c7b-4686-4f83-b548-db1240ab94fb}, ! Handle
  AEDG K12 Nonres 3C Attic Floor,         ! Name
  ,                                       ! Surface Rendering Name
  {9a26d884-559f-4b1d-9a5b-fb6d05fbe66d}, ! Layer 1
  {86352d12-6d14-4500-b600-1e9abd3fdec4}, ! Layer 2
  {4d061913-7972-4eeb-9bf6-191c4ac3788a}; ! Layer 3

OS:Material,
  {4d061913-7972-4eeb-9bf6-191c4ac3788a}, ! Handle
  1/2IN Gypsum Bottom,                    ! Name
  Smooth,                                 ! Roughness
  0.01271,                                ! Thickness {m}
  0.16,                                   ! Conductivity {W/m-K}
  784.9,                                  ! Density {kg/m3}
  830,                                    ! Specific Heat {J/kg-K}
  0.9,                                    ! Thermal Absorptance
  0.92,                                   ! Solar Absorptance
  0.92;                                   ! Visible Absorptance

