
OS:Version,
  {fbd80340-e477-4e49-b321-8a0e2ed35792}, ! Handle
  0.9.3;                                  ! Version Identifier

OS:Construction,
  {79b0802e-f7a6-400f-abea-cc08edb2041a}, ! Handle
  90.1 Windows Window Fixed 3611 Vnl-Clr-Ins-Clr-Ins-Clr, ! Name
  ,                                       ! Surface Rendering Name
  {f9508792-efbd-4c66-a678-fea4eef2dcdb}; ! Layer 1

OS:WindowMaterial:Glazing,
  {f9508792-efbd-4c66-a678-fea4eef2dcdb}, ! Handle
  Theoretical Glass [294],                ! Name
  SpectralAverage,                        ! Optical Data Type
  ,                                       ! Window Glass Spectral Data Set Name
  0.003,                                  ! Thickness {m}
  0.544976,                               ! Solar Transmittance at Normal Incidence
  0.405024,                               ! Front Side Solar Reflectance at Normal Incidence
  0.405024,                               ! Back Side Solar Reflectance at Normal Incidence
  0.609218,                               ! Visible Transmittance at Normal Incidence
  0.340782,                               ! Front Side Visible Reflectance at Normal Incidence
  0.340782,                               ! Back Side Visible Reflectance at Normal Incidence
  0,                                      ! Infrared Transmittance at Normal Incidence
  0.9,                                    ! Front Side Infrared Hemispherical Emissivity
  0.9,                                    ! Back Side Infrared Hemispherical Emissivity
  0.00811056;                             ! Conductivity {W/m-K}

OS:ComponentCost:LineItem,
  {63ef8650-84dc-433c-bc2f-f9fcee42179e}, ! Handle
  90.1 Windows Window Fixed 3611 Vnl-Clr-Ins-Clr-Ins-Clr, ! Name
  ,                                       ! Type
  Construction,                           ! Line Item Type
  90.1 Windows Window Fixed 3611 Vnl-Clr-Ins-Clr-Ins-Clr, ! Item Name
  ,                                       ! Object End Use Key
  ,                                       ! Quantity {dimensionless}
  0,                                      ! Material Cost {$}
  CostPerArea;                            ! Material Cost Units

OS:ComponentData,
  {1e750985-a269-47a2-aaa5-f164d251224a}, ! Handle
  Component Data 1,                       ! Name
  {474cba35-11b2-48f4-b24d-0b9b4887934e}, ! UUID
  {145e5c30-34e4-4745-9c4e-4097f04484f3}, ! Version UUID
  1363981004,                             ! Creation Timestamp
  1363981004,                             ! Version Timestamp
  {79b0802e-f7a6-400f-abea-cc08edb2041a}, ! Name of Object 1
  {f9508792-efbd-4c66-a678-fea4eef2dcdb}, ! Name of Object 2
  {63ef8650-84dc-433c-bc2f-f9fcee42179e}; ! Name of Object 3

