
OS:Version,
  {da44ac89-8069-4ea2-abdd-8a742b5e8061}, ! Handle
  0.9.3;                                  ! Version Identifier

OS:Construction,
  {fc2e7a05-83c9-43e7-95ab-535bb076646e}, ! Handle
  90.1 Windows Window Fixed 3611 Vnl-Clr-Ins-Clr-Ins-Clr, ! Name
  ,                                       ! Surface Rendering Name
  {1863acd4-c1ee-428d-aae3-3f40d6a24205}; ! Layer 1

OS:WindowMaterial:Glazing,
  {1863acd4-c1ee-428d-aae3-3f40d6a24205}, ! Handle
  Theoretical Glass [294],                ! Name
  SpectralAverage,                        ! Optical Data Type
  ,                                       ! Window Glass Spectral Data Set Name
  0.003,                                  ! Thickness {m}
  0.544976,                               ! Solar Transmittance at Normal Incidence
  0.405024,                               ! Front Side Solar Reflectance at Normal Incidence
  0.405024,                               ! Back Side Solar Reflectance at Normal Incidence
  0.609218,                               ! Visible Transmittance at Normal Incidence
  0.340782,                               ! Front Side Visible Reflectance at Normal Incidence
  0.340782,                               ! Back Side Visible Reflectance at Normal Incidence
  0,                                      ! Infrared Transmittance at Normal Incidence
  0.9,                                    ! Front Side Infrared Hemispherical Emissivity
  0.9,                                    ! Back Side Infrared Hemispherical Emissivity
  0.00811056;                             ! Conductivity {W/m-K}

OS:ComponentCost:LineItem,
  {33ea42b4-8ec5-4661-a78f-6a9a1a272ac8}, ! Handle
  90.1 Windows Window Fixed 3611 Vnl-Clr-Ins-Clr-Ins-Clr, ! Name
  ,                                       ! Type
  Construction,                           ! Line Item Type
  90.1 Windows Window Fixed 3611 Vnl-Clr-Ins-Clr-Ins-Clr, ! Item Name
  ,                                       ! Object End Use Key
  ,                                       ! Quantity {dimensionless}
  0,                                      ! Material Cost {$}
  CostPerArea;                            ! Material Cost Units

