
OS:Version,
  {c4747668-ef02-42b7-ac0b-67529bc82555}, ! Handle
  0.9.3;                                  ! Version Identifier

OS:Material,
  {ba303336-9af0-42f2-873f-2100d20c4455}, ! Handle
  Wall Insulation [8],                    ! Name
  MediumRough,                            ! Roughness
  0.067929,                               ! Thickness {m}
  0.0432,                                 ! Conductivity {W/m-K}
  91,                                     ! Density {kg/m3}
  837,                                    ! Specific Heat {J/kg-K}
  0.9,                                    ! Thermal Absorptance
  0.5,                                    ! Solar Absorptance
  0.5;                                    ! Visible Absorptance

OS:Material,
  {4013624b-4ae5-4c73-803a-d275f2623364}, ! Handle
  8IN Concrete HW,                        ! Name
  MediumRough,                            ! Roughness
  0.2033,                                 ! Thickness {m}
  1.7296,                                 ! Conductivity {W/m-K}
  2243,                                   ! Density {kg/m3}
  837,                                    ! Specific Heat {J/kg-K}
  0.9,                                    ! Thermal Absorptance
  0.65,                                   ! Solar Absorptance
  0.65;                                   ! Visible Absorptance

OS:Material,
  {82113461-f5aa-4ae9-88df-0ab4db97b789}, ! Handle
  1/2IN Gypsum,                           ! Name
  Smooth,                                 ! Roughness
  0.01271,                                ! Thickness {m}
  0.16,                                   ! Conductivity {W/m-K}
  784.9,                                  ! Density {kg/m3}
  830,                                    ! Specific Heat {J/kg-K}
  0.9,                                    ! Thermal Absorptance
  0.92,                                   ! Solar Absorptance
  0.92;                                   ! Visible Absorptance

OS:Construction,
  {fed9c522-df90-49c9-8f5e-91b30c6c8847}, ! Handle
  90.1-1999 Nonres B21 Ext Wall Mass,     ! Name
  ,                                       ! Surface Rendering Name
  {ffd1e82c-539e-4e11-a09d-6e2703762807}, ! Layer 1
  {4013624b-4ae5-4c73-803a-d275f2623364}, ! Layer 2
  {ba303336-9af0-42f2-873f-2100d20c4455}, ! Layer 3
  {82113461-f5aa-4ae9-88df-0ab4db97b789}; ! Layer 4

OS:Material,
  {ffd1e82c-539e-4e11-a09d-6e2703762807}, ! Handle
  1IN Stucco,                             ! Name
  Smooth,                                 ! Roughness
  0.0253,                                 ! Thickness {m}
  0.6918,                                 ! Conductivity {W/m-K}
  1858,                                   ! Density {kg/m3}
  837,                                    ! Specific Heat {J/kg-K}
  0.9,                                    ! Thermal Absorptance
  0.92,                                   ! Solar Absorptance
  0.92;                                   ! Visible Absorptance

OS:ComponentCost:LineItem,
  {583d42bb-c439-403b-b985-f8c0366a0612}, ! Handle
  90.1-1999 Nonres B21 Ext Wall Mass,     ! Name
  ,                                       ! Type
  Construction,                           ! Line Item Type
  90.1-1999 Nonres B21 Ext Wall Mass,     ! Item Name
  ,                                       ! Object End Use Key
  ,                                       ! Quantity {dimensionless}
  65.826,                                 ! Material Cost {$}
  CostPerArea;                            ! Material Cost Units

