
OS:Version,
  {e95f0a6a-29e7-423c-9e56-581123a01015}, ! Handle
  0.9.3;                                  ! Version Identifier

OS:Construction,
  {d394bec7-7ef0-4610-8fee-e79e9dfe3a10}, ! Handle
  90.1-1999 Res B19 Ext Slab Unheated - 8in Slab without Carpet, ! Name
  ,                                       ! Surface Rendering Name
  {fe4a15fd-c1bb-4a84-98c5-9cdbe437eadd}; ! Layer 1

OS:Material,
  {fe4a15fd-c1bb-4a84-98c5-9cdbe437eadd}, ! Handle
  MAT-CC05 8 HW CONCRETE,                 ! Name
  Rough,                                  ! Roughness
  0.20321,                                ! Thickness {m}
  1.311,                                  ! Conductivity {W/m-K}
  2240,                                   ! Density {kg/m3}
  836.8,                                  ! Specific Heat {J/kg-K}
  0.9,                                    ! Thermal Absorptance
  0.7,                                    ! Solar Absorptance
  0.7;                                    ! Visible Absorptance

OS:ComponentCost:LineItem,
  {60c1a93b-96b1-4828-818f-4363dbc9ba95}, ! Handle
  90.1-1999 Res B19 Ext Slab Unheated - 8in Slab without Carpet, ! Name
  ,                                       ! Type
  Construction,                           ! Line Item Type
  90.1-1999 Res B19 Ext Slab Unheated - 8in Slab without Carpet, ! Item Name
  ,                                       ! Object End Use Key
  ,                                       ! Quantity {dimensionless}
  45.52,                                  ! Material Cost {$}
  CostPerArea;                            ! Material Cost Units

OS:ComponentData,
  {86224408-a358-4da1-931c-1ce55462d70a}, ! Handle
  Component Data 1,                       ! Name
  {0cfcf13a-97ac-4caa-b489-b0eb8e54a759}, ! UUID
  {0fa767b3-bd46-462b-b2cd-ae5b5f2168c5}, ! Version UUID
  1363981247,                             ! Creation Timestamp
  1363981247,                             ! Version Timestamp
  {d394bec7-7ef0-4610-8fee-e79e9dfe3a10}, ! Name of Object 1
  {fe4a15fd-c1bb-4a84-98c5-9cdbe437eadd}, ! Name of Object 2
  {60c1a93b-96b1-4828-818f-4363dbc9ba95}; ! Name of Object 3

