
OS:Version,
  {10ef1705-1719-4bc6-8202-515435ad23f5}, ! Handle
  0.9.3;                                  ! Version Identifier

OS:ComponentCost:LineItem,
  {3048dc1b-dfd1-440b-914d-a016004f24fc}, ! Handle
  90.1-2001 Res B5 Int Wall,              ! Name
  ,                                       ! Type
  Construction,                           ! Line Item Type
  90.1-2001 Res B5 Int Wall,              ! Item Name
  ,                                       ! Object End Use Key
  ,                                       ! Quantity {dimensionless}
  0,                                      ! Material Cost {$}
  CostPerArea;                            ! Material Cost Units

OS:Material,
  {5476091b-c2fb-40cf-ad3d-1ba2f1044fc9}, ! Handle
  GP01 1/2 GYPSUM,                        ! Name
  Smooth,                                 ! Roughness
  0.01271,                                ! Thickness {m}
  0.16,                                   ! Conductivity {W/m-K}
  800,                                    ! Density {kg/m3}
  1090,                                   ! Specific Heat {J/kg-K}
  0.9,                                    ! Thermal Absorptance
  0.7,                                    ! Solar Absorptance
  0.5;                                    ! Visible Absorptance

OS:Material,
  {7c3e7137-20f4-46e4-aa50-ec4647790076}, ! Handle
  GP01 1/2 GYPSUM 1,                      ! Name
  Smooth,                                 ! Roughness
  0.01271,                                ! Thickness {m}
  0.16,                                   ! Conductivity {W/m-K}
  800,                                    ! Density {kg/m3}
  1090,                                   ! Specific Heat {J/kg-K}
  0.9,                                    ! Thermal Absorptance
  0.7,                                    ! Solar Absorptance
  0.5;                                    ! Visible Absorptance

OS:Construction,
  {547905ae-a3cd-4bfa-98c0-09492a9bf512}, ! Handle
  90.1-2001 Res B5 Int Wall,              ! Name
  ,                                       ! Surface Rendering Name
  {5476091b-c2fb-40cf-ad3d-1ba2f1044fc9}, ! Layer 1
  {5476091b-c2fb-40cf-ad3d-1ba2f1044fc9}; ! Layer 2

