
OS:Version,
  {33c28c17-bf69-457a-80a3-cd525aeb4040}, ! Handle
  0.9.3;                                  ! Version Identifier

OS:Construction,
  {3e7c2c70-ee65-4d95-a908-c06bcabf3101}, ! Handle
  90.1-1999 Res B14 Ext Slab Unheated - 8in Slab without Carpet, ! Name
  ,                                       ! Surface Rendering Name
  {5557f770-d646-449b-8c10-69a833f6b160}; ! Layer 1

OS:Material,
  {5557f770-d646-449b-8c10-69a833f6b160}, ! Handle
  MAT-CC05 8 HW CONCRETE,                 ! Name
  Rough,                                  ! Roughness
  0.20321,                                ! Thickness {m}
  1.311,                                  ! Conductivity {W/m-K}
  2240,                                   ! Density {kg/m3}
  836.8,                                  ! Specific Heat {J/kg-K}
  0.9,                                    ! Thermal Absorptance
  0.7,                                    ! Solar Absorptance
  0.7;                                    ! Visible Absorptance

OS:ComponentCost:LineItem,
  {de5e6c99-388e-491b-9b53-95718769792a}, ! Handle
  90.1-1999 Res B14 Ext Slab Unheated - 8in Slab without Carpet, ! Name
  ,                                       ! Type
  Construction,                           ! Line Item Type
  90.1-1999 Res B14 Ext Slab Unheated - 8in Slab without Carpet, ! Item Name
  ,                                       ! Object End Use Key
  ,                                       ! Quantity {dimensionless}
  45.52,                                  ! Material Cost {$}
  CostPerArea;                            ! Material Cost Units

OS:ComponentData,
  {7735aa89-91f7-44b3-80fb-14eae3868f25}, ! Handle
  Component Data 1,                       ! Name
  {eed652cf-a1c3-407c-b0f8-1cfc43580c66}, ! UUID
  {18bfa3db-c8c3-4b47-9bda-3883a7d222e7}, ! Version UUID
  1363981225,                             ! Creation Timestamp
  1363981225,                             ! Version Timestamp
  {3e7c2c70-ee65-4d95-a908-c06bcabf3101}, ! Name of Object 1
  {5557f770-d646-449b-8c10-69a833f6b160}, ! Name of Object 2
  {de5e6c99-388e-491b-9b53-95718769792a}; ! Name of Object 3

