
OS:Version,
  {3e951215-c933-42fd-8e00-ad506a9bb9c8}, ! Handle
  0.9.3;                                  ! Version Identifier

OS:Material,
  {eaeacbe2-521e-4e46-b4e8-8a3eec6063b9}, ! Handle
  METAL Door Medium 18Ga_2,               ! Name
  Smooth,                                 ! Roughness
  0.0013106,                              ! Thickness {m}
  45.3149,                                ! Conductivity {W/m-K}
  7833.03,                                ! Density {kg/m3}
  502.08,                                 ! Specific Heat {J/kg-K}
  0.8,                                    ! Thermal Absorptance
  0.5,                                    ! Solar Absorptance
  0.5;                                    ! Visible Absorptance

OS:Material:NoMass,
  {460484be-a98d-4243-93f1-e99ac97c9b20}, ! Handle
  AIR,                                    ! Name
  Smooth,                                 ! Roughness
  0.251489,                               ! Thermal Resistance {m2-K/W}
  0.8,                                    ! Thermal Absorptance
  0.5,                                    ! Solar Absorptance
  0.5;                                    ! Visible Absorptance

OS:Material,
  {71d515d9-03e2-43fd-9fcf-6c3ff50364c4}, ! Handle
  METAL Door Medium 18Ga_1,               ! Name
  Smooth,                                 ! Roughness
  0.0013106,                              ! Thickness {m}
  45.3149,                                ! Conductivity {W/m-K}
  7833.03,                                ! Density {kg/m3}
  502.08,                                 ! Specific Heat {J/kg-K}
  0.8,                                    ! Thermal Absorptance
  0.5,                                    ! Solar Absorptance
  0.5;                                    ! Visible Absorptance

OS:ComponentCost:LineItem,
  {ef601911-2836-47b6-9995-1905a31d039a}, ! Handle
  AEDG K12 Nonres 3A Door Swinging,       ! Name
  ,                                       ! Type
  Construction,                           ! Line Item Type
  AEDG K12 Nonres 3A Door Swinging,       ! Item Name
  ,                                       ! Object End Use Key
  ,                                       ! Quantity {dimensionless}
  0,                                      ! Material Cost {$}
  CostPerArea;                            ! Material Cost Units

OS:Construction,
  {107bdb05-b6cd-4f64-a318-989621318626}, ! Handle
  AEDG K12 Nonres 3A Door Swinging,       ! Name
  ,                                       ! Surface Rendering Name
  {71d515d9-03e2-43fd-9fcf-6c3ff50364c4}, ! Layer 1
  {460484be-a98d-4243-93f1-e99ac97c9b20}, ! Layer 2
  {eaeacbe2-521e-4e46-b4e8-8a3eec6063b9}; ! Layer 3

