
OS:Version,
  {4252fed3-af5a-4043-a51e-844c0b6b9c9b}, ! Handle
  0.9.3;                                  ! Version Identifier

OS:Material,
  {e60c19af-212b-43dd-8e18-27d039ea486e}, ! Handle
  1/2IN Gypsum,                           ! Name
  Smooth,                                 ! Roughness
  0.01271,                                ! Thickness {m}
  0.16,                                   ! Conductivity {W/m-K}
  784.9,                                  ! Density {kg/m3}
  830,                                    ! Specific Heat {J/kg-K}
  0.9,                                    ! Thermal Absorptance
  0.92,                                   ! Solar Absorptance
  0.92;                                   ! Visible Absorptance

OS:ComponentCost:LineItem,
  {4ff3f1bf-e727-403b-bad5-49dfa5286ca0}, ! Handle
  90.1-2001 Nonres B17 Ext Wall Metal Building, ! Name
  ,                                       ! Type
  Construction,                           ! Line Item Type
  90.1-2001 Nonres B17 Ext Wall Metal Building, ! Item Name
  ,                                       ! Object End Use Key
  ,                                       ! Quantity {dimensionless}
  98.78,                                  ! Material Cost {$}
  CostPerArea;                            ! Material Cost Units

OS:Material,
  {c440683e-88b0-429e-a742-25f089ebc358}, ! Handle
  Wall Insulation,                        ! Name
  MediumRough,                            ! Roughness
  0.0598725,                              ! Thickness {m}
  0.045,                                  ! Conductivity {W/m-K}
  265,                                    ! Density {kg/m3}
  836.8,                                  ! Specific Heat {J/kg-K}
  0.9,                                    ! Thermal Absorptance
  0.7,                                    ! Solar Absorptance
  0.7;                                    ! Visible Absorptance

OS:Construction,
  {635b61c1-66cb-4127-be11-222d2b943832}, ! Handle
  90.1-2001 Nonres B17 Ext Wall Metal Building, ! Name
  ,                                       ! Surface Rendering Name
  {e2bd3f30-c408-4310-81e8-bb101c836f54}, ! Layer 1
  {c440683e-88b0-429e-a742-25f089ebc358}, ! Layer 2
  {e60c19af-212b-43dd-8e18-27d039ea486e}; ! Layer 3

OS:Material,
  {e2bd3f30-c408-4310-81e8-bb101c836f54}, ! Handle
  Metal Siding,                           ! Name
  Smooth,                                 ! Roughness
  0.0015,                                 ! Thickness {m}
  44.96,                                  ! Conductivity {W/m-K}
  7688.86,                                ! Density {kg/m3}
  410,                                    ! Specific Heat {J/kg-K}
  0.9,                                    ! Thermal Absorptance
  0.2,                                    ! Solar Absorptance
  0.2;                                    ! Visible Absorptance

