
OS:Version,
  {9126da52-df38-4752-9bf5-901293124021}, ! Handle
  0.9.3;                                  ! Version Identifier

OS:Material:NoMass,
  {7bc8cc13-66c9-49ad-88cc-1ca4bfb8372a}, ! Handle
  CP02 CARPET PAD,                        ! Name
  VeryRough,                              ! Roughness
  0.21648,                                ! Thermal Resistance {m2-K/W}
  0.9,                                    ! Thermal Absorptance
  0.7,                                    ! Solar Absorptance
  0.8;                                    ! Visible Absorptance

OS:Construction,
  {f7f726f9-ad34-4ee5-9745-10fd78ee6538}, ! Handle
  189.1-2009 Res 2A Ext Slab Unheated - 4in Slab with Carpet, ! Name
  ,                                       ! Surface Rendering Name
  {4ded579a-7f69-45fc-9c15-84475de52c18}, ! Layer 1
  {7bc8cc13-66c9-49ad-88cc-1ca4bfb8372a}; ! Layer 2

OS:Material,
  {4ded579a-7f69-45fc-9c15-84475de52c18}, ! Handle
  MAT-CC05 4 HW CONCRETE,                 ! Name
  Rough,                                  ! Roughness
  0.1016,                                 ! Thickness {m}
  1.311,                                  ! Conductivity {W/m-K}
  2240,                                   ! Density {kg/m3}
  836.8,                                  ! Specific Heat {J/kg-K}
  0.9,                                    ! Thermal Absorptance
  0.7,                                    ! Solar Absorptance
  0.7;                                    ! Visible Absorptance

OS:ComponentCost:LineItem,
  {7bab4640-7f68-433a-b58c-f074aab6a027}, ! Handle
  189.1-2009 Res 2A Ext Slab Unheated - 4in Slab with Carpet, ! Name
  ,                                       ! Type
  Construction,                           ! Line Item Type
  189.1-2009 Res 2A Ext Slab Unheated - 4in Slab with Carpet, ! Item Name
  ,                                       ! Object End Use Key
  ,                                       ! Quantity {dimensionless}
  45.52,                                  ! Material Cost {$}
  CostPerArea;                            ! Material Cost Units

