
OS:Version,
  {794e1f60-09b1-4076-9c5b-4c36d649331c}, ! Handle
  0.9.3;                                  ! Version Identifier

OS:WindowMaterial:Glazing,
  {4e194b5d-5b8d-4ce2-9c10-5fc89773b03d}, ! Handle
  Theoretical Glass [4],                  ! Name
  SpectralAverage,                        ! Optical Data Type
  ,                                       ! Window Glass Spectral Data Set Name
  0.003,                                  ! Thickness {m}
  0.326699,                               ! Solar Transmittance at Normal Incidence
  0.623301,                               ! Front Side Solar Reflectance at Normal Incidence
  0.623301,                               ! Back Side Solar Reflectance at Normal Incidence
  0.352127,                               ! Visible Transmittance at Normal Incidence
  0.597873,                               ! Front Side Visible Reflectance at Normal Incidence
  0.597873,                               ! Back Side Visible Reflectance at Normal Incidence
  0,                                      ! Infrared Transmittance at Normal Incidence
  0.999,                                  ! Front Side Infrared Hemispherical Emissivity
  0.999,                                  ! Back Side Infrared Hemispherical Emissivity
  3.36874;                                ! Conductivity {W/m-K}

OS:Construction,
  {5466118e-59e9-46ee-9bc9-218f1bafe5fd}, ! Handle
  90.1-1999 Nonres B1 Window Fixed,       ! Name
  ,                                       ! Surface Rendering Name
  {4e194b5d-5b8d-4ce2-9c10-5fc89773b03d}; ! Layer 1

OS:ComponentCost:LineItem,
  {943f3ff5-68c8-4829-975b-b60bbb4f9a1f}, ! Handle
  90.1-1999 Nonres B1 Window Fixed,       ! Name
  ,                                       ! Type
  Construction,                           ! Line Item Type
  90.1-1999 Nonres B1 Window Fixed,       ! Item Name
  ,                                       ! Object End Use Key
  ,                                       ! Quantity {dimensionless}
  473.607,                                ! Material Cost {$}
  CostPerArea;                            ! Material Cost Units

