
OS:Version,
  {8463470c-aaa5-45d9-8a94-28e98e1001a1}, ! Handle
  0.9.3;                                  ! Version Identifier

OS:Construction,
  {f6058c18-c416-40e8-b604-5e77fae1149a}, ! Handle
  90.1-2001 Res B21 Roof Metal Building,  ! Name
  ,                                       ! Surface Rendering Name
  {84f1979a-9c8a-401b-a8c7-dbeba3641418}, ! Layer 1
  {8b09de51-2ae8-459b-b95c-06c3313f4bde}; ! Layer 2

OS:Material,
  {84f1979a-9c8a-401b-a8c7-dbeba3641418}, ! Handle
  Metal Roofing,                          ! Name
  MediumSmooth,                           ! Roughness
  0.001524,                               ! Thickness {m}
  45.006,                                 ! Conductivity {W/m-K}
  7680,                                   ! Density {kg/m3}
  418.4,                                  ! Specific Heat {J/kg-K}
  0.9,                                    ! Thermal Absorptance
  0.7,                                    ! Solar Absorptance
  0.3;                                    ! Visible Absorptance

OS:Material,
  {8b09de51-2ae8-459b-b95c-06c3313f4bde}, ! Handle
  Roof Insulation [6],                    ! Name
  MediumRough,                            ! Roughness
  0.147675,                               ! Thickness {m}
  0.049,                                  ! Conductivity {W/m-K}
  265,                                    ! Density {kg/m3}
  836.8,                                  ! Specific Heat {J/kg-K}
  0.9,                                    ! Thermal Absorptance
  0.7,                                    ! Solar Absorptance
  0.7;                                    ! Visible Absorptance

OS:ComponentCost:LineItem,
  {56683048-4dde-4b6e-8500-fc0973119f84}, ! Handle
  90.1-2001 Res B21 Roof Metal Building,  ! Name
  ,                                       ! Type
  Construction,                           ! Line Item Type
  90.1-2001 Res B21 Roof Metal Building,  ! Item Name
  ,                                       ! Object End Use Key
  ,                                       ! Quantity {dimensionless}
  40.571,                                 ! Material Cost {$}
  CostPerArea;                            ! Material Cost Units

OS:ComponentData,
  {d2aee723-3056-417d-bc9c-2eaf60ad443a}, ! Handle
  Component Data 1,                       ! Name
  {9cca26b3-0898-4c67-b026-c4592a273374}, ! UUID
  {c884d0a3-e6f1-40a8-bf74-15bce79ba638}, ! Version UUID
  1363981580,                             ! Creation Timestamp
  1363981580,                             ! Version Timestamp
  {f6058c18-c416-40e8-b604-5e77fae1149a}, ! Name of Object 1
  {84f1979a-9c8a-401b-a8c7-dbeba3641418}, ! Name of Object 2
  {8b09de51-2ae8-459b-b95c-06c3313f4bde}, ! Name of Object 3
  {56683048-4dde-4b6e-8500-fc0973119f84}; ! Name of Object 4

