
OS:Version,
  {47478e42-8666-45f8-a467-da64d52cf97f}, ! Handle
  0.9.3;                                  ! Version Identifier

OS:ComponentCost:LineItem,
  {99798261-cc15-439e-9121-c989791ca63c}, ! Handle
  AEDG SHC Nonres 3A Roof IEAD,           ! Name
  ,                                       ! Type
  Construction,                           ! Line Item Type
  AEDG SHC Nonres 3A Roof IEAD,           ! Item Name
  ,                                       ! Object End Use Key
  ,                                       ! Quantity {dimensionless}
  0,                                      ! Material Cost {$}
  CostPerArea;                            ! Material Cost Units

OS:Material,
  {8db203c8-ba56-4143-8463-4f2ac1dfd0dc}, ! Handle
  Roof Insulation [31],                   ! Name
  MediumRough,                            ! Roughness
  0.209546,                               ! Thickness {m}
  0.049,                                  ! Conductivity {W/m-K}
  265,                                    ! Density {kg/m3}
  836.8,                                  ! Specific Heat {J/kg-K}
  0.9,                                    ! Thermal Absorptance
  0.7,                                    ! Solar Absorptance
  0.7;                                    ! Visible Absorptance

OS:Construction,
  {0caa7382-26fd-4ca5-ad5c-540b57c78751}, ! Handle
  AEDG SHC Nonres 3A Roof IEAD,           ! Name
  ,                                       ! Surface Rendering Name
  {5d101396-ba92-42c7-b4cc-b30fc7a40482}, ! Layer 1
  {8db203c8-ba56-4143-8463-4f2ac1dfd0dc}, ! Layer 2
  {ed6b0d19-e481-4c70-8f04-0e42c50871fb}; ! Layer 3

OS:Material,
  {5d101396-ba92-42c7-b4cc-b30fc7a40482}, ! Handle
  Roof Membrane [1],                      ! Name
  VeryRough,                              ! Roughness
  0.0095,                                 ! Thickness {m}
  0.16,                                   ! Conductivity {W/m-K}
  1121.29,                                ! Density {kg/m3}
  1460,                                   ! Specific Heat {J/kg-K}
  0.9,                                    ! Thermal Absorptance
  0.3,                                    ! Solar Absorptance
  0.3;                                    ! Visible Absorptance

OS:Material,
  {ed6b0d19-e481-4c70-8f04-0e42c50871fb}, ! Handle
  Metal Decking,                          ! Name
  MediumSmooth,                           ! Roughness
  0.001524,                               ! Thickness {m}
  45.006,                                 ! Conductivity {W/m-K}
  7680,                                   ! Density {kg/m3}
  418.4,                                  ! Specific Heat {J/kg-K}
  0.9,                                    ! Thermal Absorptance
  0.7,                                    ! Solar Absorptance
  0.3;                                    ! Visible Absorptance

