
OS:Version,
  {cc061ebb-fbee-401e-93c2-4dfbe644ab12}, ! Handle
  0.9.3;                                  ! Version Identifier

OS:WindowMaterial:Glazing,
  {ea869a02-542d-47bb-bcee-64d41dd76008}, ! Handle
  Theoretical Glass [206],                ! Name
  SpectralAverage,                        ! Optical Data Type
  ,                                       ! Window Glass Spectral Data Set Name
  0.003,                                  ! Thickness {m}
  0.333574,                               ! Solar Transmittance at Normal Incidence
  0.616426,                               ! Front Side Solar Reflectance at Normal Incidence
  0.616426,                               ! Back Side Solar Reflectance at Normal Incidence
  0.439975,                               ! Visible Transmittance at Normal Incidence
  0.510025,                               ! Front Side Visible Reflectance at Normal Incidence
  0.510025,                               ! Back Side Visible Reflectance at Normal Incidence
  0,                                      ! Infrared Transmittance at Normal Incidence
  0.9,                                    ! Front Side Infrared Hemispherical Emissivity
  0.9,                                    ! Back Side Infrared Hemispherical Emissivity
  0.0414988;                              ! Conductivity {W/m-K}

OS:ComponentCost:LineItem,
  {59ea3961-8ff1-4d7c-90dd-7bf5f33a3b37}, ! Handle
  189.1-2009 Nonres 4B Window Metal framing entrance door, ! Name
  ,                                       ! Type
  Construction,                           ! Line Item Type
  189.1-2009 Nonres 4B Window Metal framing entrance door, ! Item Name
  ,                                       ! Object End Use Key
  ,                                       ! Quantity {dimensionless}
  573.89,                                 ! Material Cost {$}
  CostPerArea;                            ! Material Cost Units

OS:Construction,
  {10963c66-ef50-45b7-9f61-232111e74e2c}, ! Handle
  189.1-2009 Nonres 4B Window Metal framing entrance door, ! Name
  ,                                       ! Surface Rendering Name
  {ea869a02-542d-47bb-bcee-64d41dd76008}; ! Layer 1

