
OS:Version,
  {7ca37caa-1c04-419f-b168-45b6d93b6e77}, ! Handle
  0.9.3;                                  ! Version Identifier

OS:Construction,
  {4c9170ed-aa34-469e-9729-f6c7680b0cc0}, ! Handle
  90.1-1999 Res B21 Roof Metal Building,  ! Name
  ,                                       ! Surface Rendering Name
  {afb00be1-fb33-4883-b078-de214f88e1d6}, ! Layer 1
  {842d7ddd-2e59-4bca-be9f-90f93c7c2c42}; ! Layer 2

OS:Material,
  {afb00be1-fb33-4883-b078-de214f88e1d6}, ! Handle
  Metal Roofing,                          ! Name
  MediumSmooth,                           ! Roughness
  0.001524,                               ! Thickness {m}
  45.006,                                 ! Conductivity {W/m-K}
  7680,                                   ! Density {kg/m3}
  418.4,                                  ! Specific Heat {J/kg-K}
  0.9,                                    ! Thermal Absorptance
  0.7,                                    ! Solar Absorptance
  0.3;                                    ! Visible Absorptance

OS:Material,
  {842d7ddd-2e59-4bca-be9f-90f93c7c2c42}, ! Handle
  Roof Insulation [6],                    ! Name
  MediumRough,                            ! Roughness
  0.147675,                               ! Thickness {m}
  0.049,                                  ! Conductivity {W/m-K}
  265,                                    ! Density {kg/m3}
  836.8,                                  ! Specific Heat {J/kg-K}
  0.9,                                    ! Thermal Absorptance
  0.7,                                    ! Solar Absorptance
  0.7;                                    ! Visible Absorptance

OS:ComponentCost:LineItem,
  {fe73d90b-c885-4fa5-b0ee-341dc09c1fa5}, ! Handle
  90.1-1999 Res B21 Roof Metal Building,  ! Name
  ,                                       ! Type
  Construction,                           ! Line Item Type
  90.1-1999 Res B21 Roof Metal Building,  ! Item Name
  ,                                       ! Object End Use Key
  ,                                       ! Quantity {dimensionless}
  40.571,                                 ! Material Cost {$}
  CostPerArea;                            ! Material Cost Units

OS:ComponentData,
  {74015341-91c4-42df-9690-1a7bbc558d13}, ! Handle
  Component Data 1,                       ! Name
  {eb8a0cc1-f376-4466-8096-67ea785d71cd}, ! UUID
  {0a1c8985-d36b-4a27-8bac-1d9a28b9cf46}, ! Version UUID
  1363981255,                             ! Creation Timestamp
  1363981255,                             ! Version Timestamp
  {4c9170ed-aa34-469e-9729-f6c7680b0cc0}, ! Name of Object 1
  {afb00be1-fb33-4883-b078-de214f88e1d6}, ! Name of Object 2
  {842d7ddd-2e59-4bca-be9f-90f93c7c2c42}, ! Name of Object 3
  {fe73d90b-c885-4fa5-b0ee-341dc09c1fa5}; ! Name of Object 4

