
OS:Version,
  {8fa43ebf-86e5-49b7-8a89-c139660d1dda}, ! Handle
  0.9.3;                                  ! Version Identifier

OS:Construction,
  {d5fcc2f1-c313-48d2-ba04-53db70e58bf9}, ! Handle
  90.1-1999 Res B21 Roof Metal Building,  ! Name
  ,                                       ! Surface Rendering Name
  {0f646bb8-b762-40d5-9e64-37d5b719455f}, ! Layer 1
  {f22c7044-3fb4-467b-91dc-7753ae3ed383}; ! Layer 2

OS:Material,
  {0f646bb8-b762-40d5-9e64-37d5b719455f}, ! Handle
  Metal Roofing,                          ! Name
  MediumSmooth,                           ! Roughness
  0.001524,                               ! Thickness {m}
  45.006,                                 ! Conductivity {W/m-K}
  7680,                                   ! Density {kg/m3}
  418.4,                                  ! Specific Heat {J/kg-K}
  0.9,                                    ! Thermal Absorptance
  0.7,                                    ! Solar Absorptance
  0.3;                                    ! Visible Absorptance

OS:Material,
  {f22c7044-3fb4-467b-91dc-7753ae3ed383}, ! Handle
  Roof Insulation [6],                    ! Name
  MediumRough,                            ! Roughness
  0.147675,                               ! Thickness {m}
  0.049,                                  ! Conductivity {W/m-K}
  265,                                    ! Density {kg/m3}
  836.8,                                  ! Specific Heat {J/kg-K}
  0.9,                                    ! Thermal Absorptance
  0.7,                                    ! Solar Absorptance
  0.7;                                    ! Visible Absorptance

OS:ComponentCost:LineItem,
  {723c480f-402c-4b33-8f9c-a81131d69815}, ! Handle
  90.1-1999 Res B21 Roof Metal Building,  ! Name
  ,                                       ! Type
  Construction,                           ! Line Item Type
  90.1-1999 Res B21 Roof Metal Building,  ! Item Name
  ,                                       ! Object End Use Key
  ,                                       ! Quantity {dimensionless}
  40.571,                                 ! Material Cost {$}
  CostPerArea;                            ! Material Cost Units

