
OS:Version,
  {dd04ad63-ec8e-4fca-ad1e-b9e5a4323d86}, ! Handle
  0.9.3;                                  ! Version Identifier

OS:Material,
  {305738bc-7c00-48a9-bd16-94d42816aa30}, ! Handle
  1/2IN Gypsum,                           ! Name
  Smooth,                                 ! Roughness
  0.01271,                                ! Thickness {m}
  0.16,                                   ! Conductivity {W/m-K}
  784.9,                                  ! Density {kg/m3}
  830,                                    ! Specific Heat {J/kg-K}
  0.9,                                    ! Thermal Absorptance
  0.92,                                   ! Solar Absorptance
  0.92;                                   ! Visible Absorptance

OS:ComponentCost:LineItem,
  {cade88d4-27f6-4e0e-9364-900681b1920c}, ! Handle
  AEDG-SmOffice 7A Roof Attic and Other,  ! Name
  ,                                       ! Type
  Construction,                           ! Line Item Type
  AEDG-SmOffice 7A Roof Attic and Other,  ! Item Name
  ,                                       ! Object End Use Key
  ,                                       ! Quantity {dimensionless}
  38.449,                                 ! Material Cost {$}
  CostPerArea;                            ! Material Cost Units

OS:Material,
  {c50c373c-1513-44f9-9d7d-7025856eb704}, ! Handle
  1IN Wood Decking,                       ! Name
  MediumSmooth,                           ! Roughness
  0.0254,                                 ! Thickness {m}
  0.1211,                                 ! Conductivity {W/m-K}
  593,                                    ! Density {kg/m3}
  2510,                                   ! Specific Heat {J/kg-K}
  0.9,                                    ! Thermal Absorptance
  0.78,                                   ! Solar Absorptance
  0.78;                                   ! Visible Absorptance

OS:Material,
  {ebadf8d4-4780-4746-82b7-362bda2d1cc3}, ! Handle
  Roof Insulation [11],                   ! Name
  MediumRough,                            ! Roughness
  0.474289,                               ! Thickness {m}
  0.049,                                  ! Conductivity {W/m-K}
  265,                                    ! Density {kg/m3}
  836.8,                                  ! Specific Heat {J/kg-K}
  0.9,                                    ! Thermal Absorptance
  0.7,                                    ! Solar Absorptance
  0.7;                                    ! Visible Absorptance

OS:Material,
  {b24a57d6-c3a3-487b-9ca9-9e8474c84d3b}, ! Handle
  Wood Shingles,                          ! Name
  VeryRough,                              ! Roughness
  0.0178,                                 ! Thickness {m}
  0.115,                                  ! Conductivity {W/m-K}
  513,                                    ! Density {kg/m3}
  1255,                                   ! Specific Heat {J/kg-K}
  0.9,                                    ! Thermal Absorptance
  0.78,                                   ! Solar Absorptance
  0.78;                                   ! Visible Absorptance

OS:Construction,
  {34cc7308-fd92-4b34-811e-f06f461def50}, ! Handle
  AEDG-SmOffice 7A Roof Attic and Other,  ! Name
  ,                                       ! Surface Rendering Name
  {b24a57d6-c3a3-487b-9ca9-9e8474c84d3b}, ! Layer 1
  {c50c373c-1513-44f9-9d7d-7025856eb704}, ! Layer 2
  {ebadf8d4-4780-4746-82b7-362bda2d1cc3}, ! Layer 3
  {305738bc-7c00-48a9-bd16-94d42816aa30}; ! Layer 4

