
OS:Version,
  {8e059d8c-86a7-4bba-a7b3-348ef54bb286}, ! Handle
  0.9.3;                                  ! Version Identifier

OS:Construction,
  {61ce4586-d16f-41b4-8fba-570604cf4493}, ! Handle
  90.1-1999 Res B12 Roof Attic and Other, ! Name
  ,                                       ! Surface Rendering Name
  {78d8b35c-8a7c-4743-aabc-91c07fb0c83f}, ! Layer 1
  {df2b9ba5-b84a-4b60-ad38-1a222ae78754}, ! Layer 2
  {6ed8dbcf-4da9-497e-a22a-f8ee57adf764}, ! Layer 3
  {2048b1a6-b609-448e-b0b0-d7aa86ae3aa9}; ! Layer 4

OS:Material,
  {78d8b35c-8a7c-4743-aabc-91c07fb0c83f}, ! Handle
  Wood Shingles,                          ! Name
  VeryRough,                              ! Roughness
  0.0178,                                 ! Thickness {m}
  0.115,                                  ! Conductivity {W/m-K}
  513,                                    ! Density {kg/m3}
  1255,                                   ! Specific Heat {J/kg-K}
  0.9,                                    ! Thermal Absorptance
  0.78,                                   ! Solar Absorptance
  0.78;                                   ! Visible Absorptance

OS:Material,
  {df2b9ba5-b84a-4b60-ad38-1a222ae78754}, ! Handle
  1IN Wood Decking,                       ! Name
  MediumSmooth,                           ! Roughness
  0.0254,                                 ! Thickness {m}
  0.1211,                                 ! Conductivity {W/m-K}
  593,                                    ! Density {kg/m3}
  2510,                                   ! Specific Heat {J/kg-K}
  0.9,                                    ! Thermal Absorptance
  0.78,                                   ! Solar Absorptance
  0.78;                                   ! Visible Absorptance

OS:Material,
  {6ed8dbcf-4da9-497e-a22a-f8ee57adf764}, ! Handle
  Roof Insulation [2],                    ! Name
  MediumRough,                            ! Roughness
  0.221604,                               ! Thickness {m}
  0.049,                                  ! Conductivity {W/m-K}
  265,                                    ! Density {kg/m3}
  836.8,                                  ! Specific Heat {J/kg-K}
  0.9,                                    ! Thermal Absorptance
  0.7,                                    ! Solar Absorptance
  0.7;                                    ! Visible Absorptance

OS:Material,
  {2048b1a6-b609-448e-b0b0-d7aa86ae3aa9}, ! Handle
  1/2IN Gypsum,                           ! Name
  Smooth,                                 ! Roughness
  0.01271,                                ! Thickness {m}
  0.16,                                   ! Conductivity {W/m-K}
  784.9,                                  ! Density {kg/m3}
  830,                                    ! Specific Heat {J/kg-K}
  0.9,                                    ! Thermal Absorptance
  0.92,                                   ! Solar Absorptance
  0.92;                                   ! Visible Absorptance

OS:ComponentCost:LineItem,
  {6ef2ab39-dfab-4789-8e2c-ecc31ea90541}, ! Handle
  90.1-1999 Res B12 Roof Attic and Other, ! Name
  ,                                       ! Type
  Construction,                           ! Line Item Type
  90.1-1999 Res B12 Roof Attic and Other, ! Item Name
  ,                                       ! Object End Use Key
  ,                                       ! Quantity {dimensionless}
  33.39,                                  ! Material Cost {$}
  CostPerArea;                            ! Material Cost Units

