
OS:Version,
  {9e67297a-0f22-4f2f-8370-a20be3bf54b3}, ! Handle
  0.9.3;                                  ! Version Identifier

OS:Construction,
  {e007bb06-5dfc-47b3-bb6d-da68d3f3c8e2}, ! Handle
  AEDG SHC Nonres 3A Ext Slab Unheated - 8in Slab with Carpet, ! Name
  ,                                       ! Surface Rendering Name
  {f05068c9-ef58-423b-9508-2d5328c2c166}, ! Layer 1
  {7fe268da-4b2f-4b7b-885e-4b710afdffc4}; ! Layer 2

OS:Material,
  {f05068c9-ef58-423b-9508-2d5328c2c166}, ! Handle
  MAT-CC05 8 HW CONCRETE,                 ! Name
  Rough,                                  ! Roughness
  0.20321,                                ! Thickness {m}
  1.311,                                  ! Conductivity {W/m-K}
  2240,                                   ! Density {kg/m3}
  836.8,                                  ! Specific Heat {J/kg-K}
  0.9,                                    ! Thermal Absorptance
  0.7,                                    ! Solar Absorptance
  0.7;                                    ! Visible Absorptance

OS:Material:NoMass,
  {7fe268da-4b2f-4b7b-885e-4b710afdffc4}, ! Handle
  CP02 CARPET PAD,                        ! Name
  VeryRough,                              ! Roughness
  0.21648,                                ! Thermal Resistance {m2-K/W}
  0.9,                                    ! Thermal Absorptance
  0.7,                                    ! Solar Absorptance
  0.8;                                    ! Visible Absorptance

OS:ComponentCost:LineItem,
  {22970d89-a278-48e9-a242-d4751ea912c5}, ! Handle
  AEDG SHC Nonres 3A Ext Slab Unheated - 8in Slab with Carpet, ! Name
  ,                                       ! Type
  Construction,                           ! Line Item Type
  AEDG SHC Nonres 3A Ext Slab Unheated - 8in Slab with Carpet, ! Item Name
  ,                                       ! Object End Use Key
  ,                                       ! Quantity {dimensionless}
  0,                                      ! Material Cost {$}
  CostPerArea;                            ! Material Cost Units

OS:ComponentData,
  {049d0d11-31b4-4804-a9d9-2a4835d9be1c}, ! Handle
  Component Data 1,                       ! Name
  {20748369-be0b-4600-a8cd-62ea5d5077dd}, ! UUID
  {db6e1171-f060-40e6-b322-094794101871}, ! Version UUID
  1363981918,                             ! Creation Timestamp
  1363981918,                             ! Version Timestamp
  {e007bb06-5dfc-47b3-bb6d-da68d3f3c8e2}, ! Name of Object 1
  {f05068c9-ef58-423b-9508-2d5328c2c166}, ! Name of Object 2
  {7fe268da-4b2f-4b7b-885e-4b710afdffc4}, ! Name of Object 3
  {22970d89-a278-48e9-a242-d4751ea912c5}; ! Name of Object 4

