
OS:Version,
  {8cff3d4d-0421-4b6d-b42d-ee80127fd042}, ! Handle
  0.9.3;                                  ! Version Identifier

OS:Material:NoMass,
  {f28bc055-1923-4d37-bb0f-21eb14367ed2}, ! Handle
  CP02 CARPET PAD,                        ! Name
  VeryRough,                              ! Roughness
  0.21648,                                ! Thermal Resistance {m2-K/W}
  0.9,                                    ! Thermal Absorptance
  0.7,                                    ! Solar Absorptance
  0.8;                                    ! Visible Absorptance

OS:Material,
  {d6f5e0f4-bdb1-4c6c-87e4-78e5facb18a3}, ! Handle
  MAT-CC05 8 HW CONCRETE,                 ! Name
  Rough,                                  ! Roughness
  0.20321,                                ! Thickness {m}
  1.311,                                  ! Conductivity {W/m-K}
  2240,                                   ! Density {kg/m3}
  836.8,                                  ! Specific Heat {J/kg-K}
  0.9,                                    ! Thermal Absorptance
  0.7,                                    ! Solar Absorptance
  0.7;                                    ! Visible Absorptance

OS:ComponentCost:LineItem,
  {347f7b22-32c2-4427-ab49-31b819b363aa}, ! Handle
  AEDG SHC Nonres 3A Ext Slab Unheated - 8in Slab with Carpet, ! Name
  ,                                       ! Type
  Construction,                           ! Line Item Type
  AEDG SHC Nonres 3A Ext Slab Unheated - 8in Slab with Carpet, ! Item Name
  ,                                       ! Object End Use Key
  ,                                       ! Quantity {dimensionless}
  0,                                      ! Material Cost {$}
  CostPerArea;                            ! Material Cost Units

OS:Construction,
  {01551cae-f601-46fe-a02b-c45a6f1c4c2d}, ! Handle
  AEDG SHC Nonres 3A Ext Slab Unheated - 8in Slab with Carpet, ! Name
  ,                                       ! Surface Rendering Name
  {d6f5e0f4-bdb1-4c6c-87e4-78e5facb18a3}, ! Layer 1
  {f28bc055-1923-4d37-bb0f-21eb14367ed2}; ! Layer 2

