
OS:Version,
  {9ca0c1cd-699a-4449-a9b1-a4979955f479}, ! Handle
  0.9.3;                                  ! Version Identifier

OS:Material,
  {623995e1-6ace-4fdb-bde2-45b64da3b0d7}, ! Handle
  Floor Insulation [18],                  ! Name
  MediumRough,                            ! Roughness
  0.180537,                               ! Thickness {m}
  0.045,                                  ! Conductivity {W/m-K}
  265,                                    ! Density {kg/m3}
  836.8,                                  ! Specific Heat {J/kg-K}
  0.9,                                    ! Thermal Absorptance
  0.7,                                    ! Solar Absorptance
  0.7;                                    ! Visible Absorptance

OS:Material,
  {ad861846-f85b-494a-95e3-88ccee30830f}, ! Handle
  MAT-CC05 8 HW CONCRETE,                 ! Name
  Rough,                                  ! Roughness
  0.20321,                                ! Thickness {m}
  1.311,                                  ! Conductivity {W/m-K}
  2240,                                   ! Density {kg/m3}
  836.8,                                  ! Specific Heat {J/kg-K}
  0.9,                                    ! Thermal Absorptance
  0.7,                                    ! Solar Absorptance
  0.7;                                    ! Visible Absorptance

OS:ComponentCost:LineItem,
  {f1ac3d71-876b-4dce-8b3d-c45159c4b376}, ! Handle
  AEDG SHC Nonres 8A Exposed Floor Mass,  ! Name
  ,                                       ! Type
  Construction,                           ! Line Item Type
  AEDG SHC Nonres 8A Exposed Floor Mass,  ! Item Name
  ,                                       ! Object End Use Key
  ,                                       ! Quantity {dimensionless}
  0,                                      ! Material Cost {$}
  CostPerArea;                            ! Material Cost Units

OS:Material:NoMass,
  {134a3bac-2217-4f27-9103-5a51f115305d}, ! Handle
  CP02 CARPET PAD,                        ! Name
  VeryRough,                              ! Roughness
  0.21648,                                ! Thermal Resistance {m2-K/W}
  0.9,                                    ! Thermal Absorptance
  0.7,                                    ! Solar Absorptance
  0.8;                                    ! Visible Absorptance

OS:Construction,
  {86da1ae3-9c05-4063-8715-93c5dc7a20df}, ! Handle
  AEDG SHC Nonres 8A Exposed Floor Mass,  ! Name
  ,                                       ! Surface Rendering Name
  {623995e1-6ace-4fdb-bde2-45b64da3b0d7}, ! Layer 1
  {ad861846-f85b-494a-95e3-88ccee30830f}, ! Layer 2
  {134a3bac-2217-4f27-9103-5a51f115305d}; ! Layer 3

