
OS:Version,
  {391c2dd9-7935-4148-b4fc-4584232e82d4}, ! Handle
  0.9.3;                                  ! Version Identifier

OS:Construction,
  {45d1108e-a0fc-4f83-b3ab-66ab248aad3a}, ! Handle
  90.1-2004 Nonres 6B Ext Slab Unheated - 8in Slab without Carpet, ! Name
  ,                                       ! Surface Rendering Name
  {b8ccc328-e3b5-4705-96d7-44da337ac4e1}; ! Layer 1

OS:Material,
  {b8ccc328-e3b5-4705-96d7-44da337ac4e1}, ! Handle
  MAT-CC05 8 HW CONCRETE,                 ! Name
  Rough,                                  ! Roughness
  0.20321,                                ! Thickness {m}
  1.311,                                  ! Conductivity {W/m-K}
  2240,                                   ! Density {kg/m3}
  836.8,                                  ! Specific Heat {J/kg-K}
  0.9,                                    ! Thermal Absorptance
  0.7,                                    ! Solar Absorptance
  0.7;                                    ! Visible Absorptance

OS:ComponentCost:LineItem,
  {3df28975-e318-4216-9e69-576ff6391d36}, ! Handle
  90.1-2004 Nonres 6B Ext Slab Unheated - 8in Slab without Carpet, ! Name
  ,                                       ! Type
  Construction,                           ! Line Item Type
  90.1-2004 Nonres 6B Ext Slab Unheated - 8in Slab without Carpet, ! Item Name
  ,                                       ! Object End Use Key
  ,                                       ! Quantity {dimensionless}
  45.52,                                  ! Material Cost {$}
  CostPerArea;                            ! Material Cost Units

OS:ComponentData,
  {6ffc6cf8-3c57-4d73-9845-25ef3407fe27}, ! Handle
  Component Data 1,                       ! Name
  {75072200-afa7-4c1c-bff4-76d8f982d9f0}, ! UUID
  {821b2a9a-967f-443d-a2a4-3110d74e3ef9}, ! Version UUID
  1363981686,                             ! Creation Timestamp
  1363981686,                             ! Version Timestamp
  {45d1108e-a0fc-4f83-b3ab-66ab248aad3a}, ! Name of Object 1
  {b8ccc328-e3b5-4705-96d7-44da337ac4e1}, ! Name of Object 2
  {3df28975-e318-4216-9e69-576ff6391d36}; ! Name of Object 3

