
OS:Version,
  {ba289874-1765-47c1-9282-f5db119756c8}, ! Handle
  0.9.3;                                  ! Version Identifier

OS:Construction,
  {a6950d2e-bb86-48ab-9e6d-d86460e332ed}, ! Handle
  90.1-1999 Res B19 Ext Wall Steel-Framed, ! Name
  ,                                       ! Surface Rendering Name
  {63a7157e-6b86-4fb5-9a67-3c36ea4b0517}, ! Layer 1
  {feb1a013-a3d4-4171-93ca-384d91d8a0ac}, ! Layer 2
  {01c9f4e7-37e2-4b63-91cb-e7f44f3b34f7}; ! Layer 3

OS:Material:NoMass,
  {63a7157e-6b86-4fb5-9a67-3c36ea4b0517}, ! Handle
  MAT-SHEATH,                             ! Name
  Rough,                                  ! Roughness
  0.36256,                                ! Thermal Resistance {m2-K/W}
  0.9,                                    ! Thermal Absorptance
  0.7,                                    ! Solar Absorptance
  0.7;                                    ! Visible Absorptance

OS:Material,
  {feb1a013-a3d4-4171-93ca-384d91d8a0ac}, ! Handle
  Wall Insulation [10],                   ! Name
  MediumRough,                            ! Roughness
  0.0971136,                              ! Thickness {m}
  0.045,                                  ! Conductivity {W/m-K}
  265,                                    ! Density {kg/m3}
  836.8,                                  ! Specific Heat {J/kg-K}
  0.9,                                    ! Thermal Absorptance
  0.7,                                    ! Solar Absorptance
  0.7;                                    ! Visible Absorptance

OS:Material,
  {01c9f4e7-37e2-4b63-91cb-e7f44f3b34f7}, ! Handle
  1/2IN Gypsum,                           ! Name
  Smooth,                                 ! Roughness
  0.01271,                                ! Thickness {m}
  0.16,                                   ! Conductivity {W/m-K}
  784.9,                                  ! Density {kg/m3}
  830,                                    ! Specific Heat {J/kg-K}
  0.9,                                    ! Thermal Absorptance
  0.92,                                   ! Solar Absorptance
  0.92;                                   ! Visible Absorptance

OS:ComponentCost:LineItem,
  {d72ab3fb-ea08-480f-8d75-45cb598e3428}, ! Handle
  90.1-1999 Res B19 Ext Wall Steel-Framed, ! Name
  ,                                       ! Type
  Construction,                           ! Line Item Type
  90.1-1999 Res B19 Ext Wall Steel-Framed, ! Item Name
  ,                                       ! Object End Use Key
  ,                                       ! Quantity {dimensionless}
  94.657,                                 ! Material Cost {$}
  CostPerArea;                            ! Material Cost Units

