
OS:Version,
  {64a6c0da-c929-4b94-9129-566d793c5019}, ! Handle
  0.9.3;                                  ! Version Identifier

OS:ComponentCost:LineItem,
  {3881318d-9060-4c4e-b578-13e987e08c4f}, ! Handle
  90.1-2004 Nonres 7A Roof Attic and Other, ! Name
  ,                                       ! Type
  Construction,                           ! Line Item Type
  90.1-2004 Nonres 7A Roof Attic and Other, ! Item Name
  ,                                       ! Object End Use Key
  ,                                       ! Quantity {dimensionless}
  34.757,                                 ! Material Cost {$}
  CostPerArea;                            ! Material Cost Units

OS:Material,
  {742c2e8f-3580-4f61-ab61-c16c520c5831}, ! Handle
  Wood Shingles,                          ! Name
  VeryRough,                              ! Roughness
  0.0178,                                 ! Thickness {m}
  0.115,                                  ! Conductivity {W/m-K}
  513,                                    ! Density {kg/m3}
  1255,                                   ! Specific Heat {J/kg-K}
  0.9,                                    ! Thermal Absorptance
  0.78,                                   ! Solar Absorptance
  0.78;                                   ! Visible Absorptance

OS:Material,
  {0d041378-16c9-47ce-8e6e-bc64f7fc7002}, ! Handle
  1/2IN Gypsum,                           ! Name
  Smooth,                                 ! Roughness
  0.01271,                                ! Thickness {m}
  0.16,                                   ! Conductivity {W/m-K}
  784.9,                                  ! Density {kg/m3}
  830,                                    ! Specific Heat {J/kg-K}
  0.9,                                    ! Thermal Absorptance
  0.92,                                   ! Solar Absorptance
  0.92;                                   ! Visible Absorptance

OS:Material,
  {e93a5aa0-517f-443b-b2fb-6db17cdd0bf9}, ! Handle
  Roof Insulation [5],                    ! Name
  MediumRough,                            ! Roughness
  0.286906,                               ! Thickness {m}
  0.049,                                  ! Conductivity {W/m-K}
  265,                                    ! Density {kg/m3}
  836.8,                                  ! Specific Heat {J/kg-K}
  0.9,                                    ! Thermal Absorptance
  0.7,                                    ! Solar Absorptance
  0.7;                                    ! Visible Absorptance

OS:Construction,
  {fac96bbf-11b0-444e-a955-98de1fd9d5ac}, ! Handle
  90.1-2004 Nonres 7A Roof Attic and Other, ! Name
  ,                                       ! Surface Rendering Name
  {742c2e8f-3580-4f61-ab61-c16c520c5831}, ! Layer 1
  {95611f12-a2bd-4550-a09c-182b4df82366}, ! Layer 2
  {e93a5aa0-517f-443b-b2fb-6db17cdd0bf9}, ! Layer 3
  {0d041378-16c9-47ce-8e6e-bc64f7fc7002}; ! Layer 4

OS:Material,
  {95611f12-a2bd-4550-a09c-182b4df82366}, ! Handle
  1IN Wood Decking,                       ! Name
  MediumSmooth,                           ! Roughness
  0.0254,                                 ! Thickness {m}
  0.1211,                                 ! Conductivity {W/m-K}
  593,                                    ! Density {kg/m3}
  2510,                                   ! Specific Heat {J/kg-K}
  0.9,                                    ! Thermal Absorptance
  0.78,                                   ! Solar Absorptance
  0.78;                                   ! Visible Absorptance

