
OS:Version,
  {733031a4-d971-440f-9f29-74f40c3ed9b9}, ! Handle
  0.9.3;                                  ! Version Identifier

OS:Material,
  {636d60a3-9c55-48d6-ab1a-e511f63fb431}, ! Handle
  Floor Insulation [7],                   ! Name
  MediumRough,                            ! Roughness
  0.0300799,                              ! Thickness {m}
  0.045,                                  ! Conductivity {W/m-K}
  265,                                    ! Density {kg/m3}
  836.8,                                  ! Specific Heat {J/kg-K}
  0.9,                                    ! Thermal Absorptance
  0.7,                                    ! Solar Absorptance
  0.7;                                    ! Visible Absorptance

OS:Material:NoMass,
  {23e4bc63-744d-464f-94a7-c868123dfab0}, ! Handle
  CP02 CARPET PAD,                        ! Name
  VeryRough,                              ! Roughness
  0.21648,                                ! Thermal Resistance {m2-K/W}
  0.9,                                    ! Thermal Absorptance
  0.7,                                    ! Solar Absorptance
  0.8;                                    ! Visible Absorptance

OS:Construction,
  {e55c793c-10bc-422a-a2f3-9f92cf482616}, ! Handle
  189.1-2009 Res 1A Exposed Floor Mass,   ! Name
  ,                                       ! Surface Rendering Name
  {636d60a3-9c55-48d6-ab1a-e511f63fb431}, ! Layer 1
  {800685b9-6c58-4a01-a8a4-6353d53c4cdd}, ! Layer 2
  {23e4bc63-744d-464f-94a7-c868123dfab0}; ! Layer 3

OS:Material,
  {800685b9-6c58-4a01-a8a4-6353d53c4cdd}, ! Handle
  MAT-CC05 8 HW CONCRETE,                 ! Name
  Rough,                                  ! Roughness
  0.20321,                                ! Thickness {m}
  1.311,                                  ! Conductivity {W/m-K}
  2240,                                   ! Density {kg/m3}
  836.8,                                  ! Specific Heat {J/kg-K}
  0.9,                                    ! Thermal Absorptance
  0.7,                                    ! Solar Absorptance
  0.7;                                    ! Visible Absorptance

OS:ComponentCost:LineItem,
  {77175345-dc12-4b75-8c1c-c3e8d858222e}, ! Handle
  189.1-2009 Res 1A Exposed Floor Mass,   ! Name
  ,                                       ! Type
  Construction,                           ! Line Item Type
  189.1-2009 Res 1A Exposed Floor Mass,   ! Item Name
  ,                                       ! Object End Use Key
  ,                                       ! Quantity {dimensionless}
  44.945,                                 ! Material Cost {$}
  CostPerArea;                            ! Material Cost Units

