
OS:Version,
  {19f15488-9f68-4424-b1f8-187a989c2edb}, ! Handle
  0.9.3;                                  ! Version Identifier

OS:Material,
  {cb9b527a-9b0a-4f82-9005-bbcb77efab86}, ! Handle
  AtticFloor Insulation [47],             ! Name
  MediumRough,                            ! Roughness
  0.153389,                               ! Thickness {m}
  0.049,                                  ! Conductivity {W/m-K}
  265,                                    ! Density {kg/m3}
  836.8,                                  ! Specific Heat {J/kg-K}
  0.9,                                    ! Thermal Absorptance
  0.7,                                    ! Solar Absorptance
  0.7;                                    ! Visible Absorptance

OS:Construction,
  {79dfe2a6-d388-43d6-aafb-249e816b3efe}, ! Handle
  Title 24-2005 Nonres 2 Attic Floor,     ! Name
  ,                                       ! Surface Rendering Name
  {c068dd4c-2b3b-4a06-ab3f-24a331df7225}, ! Layer 1
  {cb9b527a-9b0a-4f82-9005-bbcb77efab86}, ! Layer 2
  {3ae54296-06c7-4ebd-85ae-47f6b761e511}; ! Layer 3

OS:Material,
  {c068dd4c-2b3b-4a06-ab3f-24a331df7225}, ! Handle
  1/2IN Gypsum Top,                       ! Name
  Smooth,                                 ! Roughness
  0.01271,                                ! Thickness {m}
  0.16,                                   ! Conductivity {W/m-K}
  784.9,                                  ! Density {kg/m3}
  830,                                    ! Specific Heat {J/kg-K}
  0.9,                                    ! Thermal Absorptance
  0.92,                                   ! Solar Absorptance
  0.92;                                   ! Visible Absorptance

OS:Material,
  {3ae54296-06c7-4ebd-85ae-47f6b761e511}, ! Handle
  1/2IN Gypsum Bottom,                    ! Name
  Smooth,                                 ! Roughness
  0.01271,                                ! Thickness {m}
  0.16,                                   ! Conductivity {W/m-K}
  784.9,                                  ! Density {kg/m3}
  830,                                    ! Specific Heat {J/kg-K}
  0.9,                                    ! Thermal Absorptance
  0.92,                                   ! Solar Absorptance
  0.92;                                   ! Visible Absorptance

OS:ComponentCost:LineItem,
  {447c9266-4154-4230-9e74-6f08792a8c53}, ! Handle
  Title 24-2005 Nonres 2 Attic Floor,     ! Name
  ,                                       ! Type
  Construction,                           ! Line Item Type
  Title 24-2005 Nonres 2 Attic Floor,     ! Item Name
  ,                                       ! Object End Use Key
  ,                                       ! Quantity {dimensionless}
  32.229,                                 ! Material Cost {$}
  CostPerArea;                            ! Material Cost Units

