
OS:Version,
  {52ed6b83-9dda-49bb-9346-b0540c08af0b}, !- Handle
  1.1.0;                                  !- Version Identifier

OS:Construction,
  {85768eb4-9ece-4ed1-9452-3512b38824d0}, !- Handle
  Dbl LoE (e2=.1) Clr 3mm/13mm Arg,       !- Name
  ,                                       !- Surface Rendering Name
  {05ef9b7a-a72b-472d-ae1a-57bbee7a3460}, !- Layer 1
  {f8c21aec-3c34-4f0e-ac4d-f6ec784fbcfc}, !- Layer 2
  {057795ab-003f-4a44-aa13-026e74f3e557}; !- Layer 3

OS:WindowMaterial:Glazing,
  {05ef9b7a-a72b-472d-ae1a-57bbee7a3460}, !- Handle
  LoE CLEAR 3MM,                          !- Name
  SpectralAverage,                        !- Optical Data Type
  ,                                       !- Window Glass Spectral Data Set Name
  0.003,                                  !- Thickness {m}
  0.63,                                   !- Solar Transmittance at Normal Incidence
  0.19,                                   !- Front Side Solar Reflectance at Normal Incidence
  0.22,                                   !- Back Side Solar Reflectance at Normal Incidence
  0.85,                                   !- Visible Transmittance at Normal Incidence
  0.056,                                  !- Front Side Visible Reflectance at Normal Incidence
  0.079,                                  !- Back Side Visible Reflectance at Normal Incidence
  0,                                      !- Infrared Transmittance at Normal Incidence
  0.84,                                   !- Front Side Infrared Hemispherical Emissivity
  0.1,                                    !- Back Side Infrared Hemispherical Emissivity
  0.9;                                    !- Conductivity {W/m-K}

OS:WindowMaterial:Gas,
  {f8c21aec-3c34-4f0e-ac4d-f6ec784fbcfc}, !- Handle
  ARGON 13MM,                             !- Name
  Argon,                                  !- Gas Type
  0.0127;                                 !- Thickness {m}

OS:WindowMaterial:Glazing,
  {057795ab-003f-4a44-aa13-026e74f3e557}, !- Handle
  CLEAR 3MM,                              !- Name
  SpectralAverage,                        !- Optical Data Type
  ,                                       !- Window Glass Spectral Data Set Name
  0.003,                                  !- Thickness {m}
  0.837,                                  !- Solar Transmittance at Normal Incidence
  0.075,                                  !- Front Side Solar Reflectance at Normal Incidence
  0.075,                                  !- Back Side Solar Reflectance at Normal Incidence
  0.898,                                  !- Visible Transmittance at Normal Incidence
  0.081,                                  !- Front Side Visible Reflectance at Normal Incidence
  0.081,                                  !- Back Side Visible Reflectance at Normal Incidence
  0,                                      !- Infrared Transmittance at Normal Incidence
  0.84,                                   !- Front Side Infrared Hemispherical Emissivity
  0.84,                                   !- Back Side Infrared Hemispherical Emissivity
  0.9;                                    !- Conductivity {W/m-K}

