
OS:Version,
  {83a3183f-9f3e-4578-86f8-680b742113f9}, ! Handle
  0.9.3;                                  ! Version Identifier

OS:Construction,
  {c2c1739f-52fb-434e-a834-e9a5760c5a04}, ! Handle
  90.1-2004 Nonres 7A Ext Wall Wood-Framed and Other, ! Name
  ,                                       ! Surface Rendering Name
  {026c53f2-694c-4965-a1b5-fac84baedd00}, ! Layer 1
  {68bf4109-640c-4544-8f99-b75e948f658c}, ! Layer 2
  {3c092d81-9cd4-49dd-871d-671d99efd006}; ! Layer 3

OS:Material,
  {026c53f2-694c-4965-a1b5-fac84baedd00}, ! Handle
  Wood Siding,                            ! Name
  MediumSmooth,                           ! Roughness
  0.01,                                   ! Thickness {m}
  0.11,                                   ! Conductivity {W/m-K}
  544.62,                                 ! Density {kg/m3}
  1210,                                   ! Specific Heat {J/kg-K}
  0.9,                                    ! Thermal Absorptance
  0.78,                                   ! Solar Absorptance
  0.78;                                   ! Visible Absorptance

OS:Material,
  {68bf4109-640c-4544-8f99-b75e948f658c}, ! Handle
  Wall Insulation [2],                    ! Name
  MediumRough,                            ! Roughness
  0.0746874,                              ! Thickness {m}
  0.045,                                  ! Conductivity {W/m-K}
  265,                                    ! Density {kg/m3}
  836.8,                                  ! Specific Heat {J/kg-K}
  0.9,                                    ! Thermal Absorptance
  0.7,                                    ! Solar Absorptance
  0.7;                                    ! Visible Absorptance

OS:Material,
  {3c092d81-9cd4-49dd-871d-671d99efd006}, ! Handle
  1/2IN Gypsum,                           ! Name
  Smooth,                                 ! Roughness
  0.01271,                                ! Thickness {m}
  0.16,                                   ! Conductivity {W/m-K}
  784.9,                                  ! Density {kg/m3}
  830,                                    ! Specific Heat {J/kg-K}
  0.9,                                    ! Thermal Absorptance
  0.92,                                   ! Solar Absorptance
  0.92;                                   ! Visible Absorptance

OS:ComponentCost:LineItem,
  {8f9c23d1-693c-4a14-890c-97b7a0cad8db}, ! Handle
  90.1-2004 Nonres 7A Ext Wall Wood-Framed and Other, ! Name
  ,                                       ! Type
  Construction,                           ! Line Item Type
  90.1-2004 Nonres 7A Ext Wall Wood-Framed and Other, ! Item Name
  ,                                       ! Object End Use Key
  ,                                       ! Quantity {dimensionless}
  73.056,                                 ! Material Cost {$}
  CostPerArea;                            ! Material Cost Units

