
OS:Version,
  {334909f9-9eb8-43c8-ac63-e0bed133d5b9}, ! Handle
  0.9.3;                                  ! Version Identifier

OS:Construction,
  {b7474d58-763e-4984-ad25-caba82921144}, ! Handle
  90.1-2004 Nonres 7A Ext Wall Wood-Framed and Other, ! Name
  ,                                       ! Surface Rendering Name
  {3cb3e3cf-395d-4622-890a-13a3dbb5440f}, ! Layer 1
  {02a8d3a2-d32d-4875-86ca-1c269b5fc940}, ! Layer 2
  {ca5465f2-f6dd-406e-8742-284912da94f8}; ! Layer 3

OS:Material,
  {3cb3e3cf-395d-4622-890a-13a3dbb5440f}, ! Handle
  Wood Siding,                            ! Name
  MediumSmooth,                           ! Roughness
  0.01,                                   ! Thickness {m}
  0.11,                                   ! Conductivity {W/m-K}
  544.62,                                 ! Density {kg/m3}
  1210,                                   ! Specific Heat {J/kg-K}
  0.9,                                    ! Thermal Absorptance
  0.78,                                   ! Solar Absorptance
  0.78;                                   ! Visible Absorptance

OS:Material,
  {02a8d3a2-d32d-4875-86ca-1c269b5fc940}, ! Handle
  Wall Insulation [2],                    ! Name
  MediumRough,                            ! Roughness
  0.0746874,                              ! Thickness {m}
  0.045,                                  ! Conductivity {W/m-K}
  265,                                    ! Density {kg/m3}
  836.8,                                  ! Specific Heat {J/kg-K}
  0.9,                                    ! Thermal Absorptance
  0.7,                                    ! Solar Absorptance
  0.7;                                    ! Visible Absorptance

OS:Material,
  {ca5465f2-f6dd-406e-8742-284912da94f8}, ! Handle
  1/2IN Gypsum,                           ! Name
  Smooth,                                 ! Roughness
  0.01271,                                ! Thickness {m}
  0.16,                                   ! Conductivity {W/m-K}
  784.9,                                  ! Density {kg/m3}
  830,                                    ! Specific Heat {J/kg-K}
  0.9,                                    ! Thermal Absorptance
  0.92,                                   ! Solar Absorptance
  0.92;                                   ! Visible Absorptance

OS:ComponentCost:LineItem,
  {de19bcdf-8537-480a-9142-e363339e5654}, ! Handle
  90.1-2004 Nonres 7A Ext Wall Wood-Framed and Other, ! Name
  ,                                       ! Type
  Construction,                           ! Line Item Type
  90.1-2004 Nonres 7A Ext Wall Wood-Framed and Other, ! Item Name
  ,                                       ! Object End Use Key
  ,                                       ! Quantity {dimensionless}
  73.056,                                 ! Material Cost {$}
  CostPerArea;                            ! Material Cost Units

OS:ComponentData,
  {b758edfd-1e95-4cfc-98f8-2aa15b18af26}, ! Handle
  Component Data 1,                       ! Name
  {70c97d16-843b-4306-b756-2777eafd33a9}, ! UUID
  {7bf54791-e760-4c00-b461-48e476e64f1f}, ! Version UUID
  1363981694,                             ! Creation Timestamp
  1363981694,                             ! Version Timestamp
  {b7474d58-763e-4984-ad25-caba82921144}, ! Name of Object 1
  {3cb3e3cf-395d-4622-890a-13a3dbb5440f}, ! Name of Object 2
  {02a8d3a2-d32d-4875-86ca-1c269b5fc940}, ! Name of Object 3
  {ca5465f2-f6dd-406e-8742-284912da94f8}, ! Name of Object 4
  {de19bcdf-8537-480a-9142-e363339e5654}; ! Name of Object 5

