
OS:Version,
  {1bc690c1-db9d-4fd4-b4c0-ab859f56b9bb}, ! Handle
  0.9.3;                                  ! Version Identifier

OS:Material,
  {43829103-fb47-4fcb-99a6-cdab7af4b877}, ! Handle
  Roof Insulation,                        ! Name
  MediumRough,                            ! Roughness
  0.124958,                               ! Thickness {m}
  0.049,                                  ! Conductivity {W/m-K}
  265,                                    ! Density {kg/m3}
  836.8,                                  ! Specific Heat {J/kg-K}
  0.9,                                    ! Thermal Absorptance
  0.7,                                    ! Solar Absorptance
  0.7;                                    ! Visible Absorptance

OS:Construction,
  {c622ca55-b0cb-4dfc-b175-557d9bc4c7c9}, ! Handle
  90.1-1999 Nonres B18 Roof IEAD,         ! Name
  ,                                       ! Surface Rendering Name
  {745742a9-14eb-487c-a471-e0cf9b94d385}, ! Layer 1
  {43829103-fb47-4fcb-99a6-cdab7af4b877}, ! Layer 2
  {c6d97518-a52d-483c-8021-01e4f967ad3e}; ! Layer 3

OS:Material,
  {745742a9-14eb-487c-a471-e0cf9b94d385}, ! Handle
  Roof Membrane,                          ! Name
  VeryRough,                              ! Roughness
  0.0095,                                 ! Thickness {m}
  0.16,                                   ! Conductivity {W/m-K}
  1121.29,                                ! Density {kg/m3}
  1460,                                   ! Specific Heat {J/kg-K}
  0.9,                                    ! Thermal Absorptance
  0.7,                                    ! Solar Absorptance
  0.7;                                    ! Visible Absorptance

OS:Material,
  {c6d97518-a52d-483c-8021-01e4f967ad3e}, ! Handle
  Metal Decking,                          ! Name
  MediumSmooth,                           ! Roughness
  0.001524,                               ! Thickness {m}
  45.006,                                 ! Conductivity {W/m-K}
  7680,                                   ! Density {kg/m3}
  418.4,                                  ! Specific Heat {J/kg-K}
  0.9,                                    ! Thermal Absorptance
  0.7,                                    ! Solar Absorptance
  0.3;                                    ! Visible Absorptance

OS:ComponentCost:LineItem,
  {e75492a9-2e50-469e-a2cf-d0f4455e6c28}, ! Handle
  90.1-1999 Nonres B18 Roof IEAD,         ! Name
  ,                                       ! Type
  Construction,                           ! Line Item Type
  90.1-1999 Nonres B18 Roof IEAD,         ! Item Name
  ,                                       ! Object End Use Key
  ,                                       ! Quantity {dimensionless}
  49.208,                                 ! Material Cost {$}
  CostPerArea;                            ! Material Cost Units

