
OS:Version,
  {ce62b6ec-5430-4ee3-b69e-b9615dbad298}, ! Handle
  0.9.3;                                  ! Version Identifier

OS:Material,
  {0b93bf61-4293-49a2-a6b5-537c716c6dbb}, ! Handle
  Metal Roofing,                          ! Name
  MediumSmooth,                           ! Roughness
  0.001524,                               ! Thickness {m}
  45.006,                                 ! Conductivity {W/m-K}
  7680,                                   ! Density {kg/m3}
  418.4,                                  ! Specific Heat {J/kg-K}
  0.9,                                    ! Thermal Absorptance
  0.7,                                    ! Solar Absorptance
  0.3;                                    ! Visible Absorptance

OS:Construction,
  {1f0096fd-b49f-45e1-9543-08d2088c7952}, ! Handle
  90.1-2001 Nonres B18 Roof Metal Building, ! Name
  ,                                       ! Surface Rendering Name
  {0b93bf61-4293-49a2-a6b5-537c716c6dbb}, ! Layer 1
  {5c4786fc-e77b-490e-ba40-222006372c77}; ! Layer 2

OS:Material,
  {5c4786fc-e77b-490e-ba40-222006372c77}, ! Handle
  Roof Insulation [1],                    ! Name
  MediumRough,                            ! Roughness
  0.123533,                               ! Thickness {m}
  0.049,                                  ! Conductivity {W/m-K}
  265,                                    ! Density {kg/m3}
  836.8,                                  ! Specific Heat {J/kg-K}
  0.9,                                    ! Thermal Absorptance
  0.7,                                    ! Solar Absorptance
  0.7;                                    ! Visible Absorptance

OS:ComponentCost:LineItem,
  {92fe9e0e-4e46-48ee-825c-785abee33526}, ! Handle
  90.1-2001 Nonres B18 Roof Metal Building, ! Name
  ,                                       ! Type
  Construction,                           ! Line Item Type
  90.1-2001 Nonres B18 Roof Metal Building, ! Item Name
  ,                                       ! Object End Use Key
  ,                                       ! Quantity {dimensionless}
  38.206,                                 ! Material Cost {$}
  CostPerArea;                            ! Material Cost Units

