
! 
OS:Version,
  {9c37d538-db0d-4a47-9850-5bede7e76bd5}, !- Handle
  1.13.0;                                 !- Version Identifier


! {"nombreProductoCorto": "CLIMALIT PLUS con PLANITHERM XN F2 F5 6(14 argon90%) 4 (14 argon90%) 44.2 DIAMANT", "codigoEAN": "", "handle": "615c9721-4bff-490d-afcb-5f3725945899", "g": 0.56, "tV": 0.75, "u": 0.6, "nombreProducto": "CLIMALIT PLUS con PLANITHERM XN F2 F5 6(14 argon90%) 4 (14 argon90%) 44.2 DIAMANT\nU:0.6 W/m2K - g:0.56 - Tv: 0.75"}
OS:WindowMaterial:SimpleGlazingSystem,
  {615c9721-4bff-490d-afcb-5f3725945899}, !- Handle
  CLIMALIT PLUS con PLANITHERM XN F2 F5 6(14 argon90%) 4 (14 argon90%) 44.2 DIAMANT, !- Name
  0.6,                                    !- U-Factor {W/m2-K}
  0.56,                                    !- Solar Heat Gain Coefficient
  0.75;                                    !- Visible Transmittance     
  
  
OS:Construction,
  {ade4abcd-e9a1-4fe1-954c-e65e1dfcc033}, !- Handle
  CLIMALIT PLUS con PLANITHERM XN F2 F5 6(14 argon90%) 4 (14 argon90%) 44.2 DIAMANT,                         !- Name
  ,                                       !- Surface Rendering Name
  {615c9721-4bff-490d-afcb-5f3725945899}; !- Layer 1  

