
OS:Version,
  {76822aff-0296-4846-81bb-50029558c099}, !- Handle
  1.1.0;                                  !- Version Identifier

OS:Construction,
  {98de4bee-446c-4381-adcc-436577fe7009}, !- Handle
  Dbl Ref-A-L Clr 6mm/13mm Air,           !- Name
  ,                                       !- Surface Rendering Name
  {4eeb4d03-a6d7-4fa6-baa4-91d98ec2ed53}, !- Layer 1
  {80771576-0dda-47be-b882-1c66cdccdee6}, !- Layer 2
  {594664c8-b967-4729-97ba-7288b3290fea}; !- Layer 3

OS:WindowMaterial:Glazing,
  {4eeb4d03-a6d7-4fa6-baa4-91d98ec2ed53}, !- Handle
  REF A CLEAR LO 6MM,                     !- Name
  SpectralAverage,                        !- Optical Data Type
  ,                                       !- Window Glass Spectral Data Set Name
  0.006,                                  !- Thickness {m}
  0.066,                                  !- Solar Transmittance at Normal Incidence
  0.341,                                  !- Front Side Solar Reflectance at Normal Incidence
  0.493,                                  !- Back Side Solar Reflectance at Normal Incidence
  0.08,                                   !- Visible Transmittance at Normal Incidence
  0.41,                                   !- Front Side Visible Reflectance at Normal Incidence
  0.37,                                   !- Back Side Visible Reflectance at Normal Incidence
  0,                                      !- Infrared Transmittance at Normal Incidence
  0.84,                                   !- Front Side Infrared Hemispherical Emissivity
  0.4,                                    !- Back Side Infrared Hemispherical Emissivity
  0.9;                                    !- Conductivity {W/m-K}

OS:WindowMaterial:Gas,
  {80771576-0dda-47be-b882-1c66cdccdee6}, !- Handle
  AIR 13MM,                               !- Name
  Air,                                    !- Gas Type
  0.0127;                                 !- Thickness {m}

OS:WindowMaterial:Glazing,
  {594664c8-b967-4729-97ba-7288b3290fea}, !- Handle
  CLEAR 6MM,                              !- Name
  SpectralAverage,                        !- Optical Data Type
  ,                                       !- Window Glass Spectral Data Set Name
  0.006,                                  !- Thickness {m}
  0.775,                                  !- Solar Transmittance at Normal Incidence
  0.071,                                  !- Front Side Solar Reflectance at Normal Incidence
  0.071,                                  !- Back Side Solar Reflectance at Normal Incidence
  0.881,                                  !- Visible Transmittance at Normal Incidence
  0.08,                                   !- Front Side Visible Reflectance at Normal Incidence
  0.08,                                   !- Back Side Visible Reflectance at Normal Incidence
  0,                                      !- Infrared Transmittance at Normal Incidence
  0.84,                                   !- Front Side Infrared Hemispherical Emissivity
  0.84,                                   !- Back Side Infrared Hemispherical Emissivity
  0.9;                                    !- Conductivity {W/m-K}

