
OS:Version,
  {77e9664a-bdad-42b3-b642-03f6b91ade93}, ! Handle
  0.9.3;                                  ! Version Identifier

OS:Construction,
  {5d67ea18-b79a-4b39-b1ff-120aaad5dd77}, ! Handle
  90.1-2007 Res 2A Ext Wall Wood-Framed and Other, ! Name
  ,                                       ! Surface Rendering Name
  {a674aa1e-a84b-43a9-8e5c-73b7e5cf9aac}, ! Layer 1
  {f2aa6421-2a5a-40ee-8a63-e12f8c64d74f}, ! Layer 2
  {f1d64491-45c2-4ecd-9252-8f78dce7ca61}; ! Layer 3

OS:Material,
  {a674aa1e-a84b-43a9-8e5c-73b7e5cf9aac}, ! Handle
  Wood Siding,                            ! Name
  MediumSmooth,                           ! Roughness
  0.01,                                   ! Thickness {m}
  0.11,                                   ! Conductivity {W/m-K}
  544.62,                                 ! Density {kg/m3}
  1210,                                   ! Specific Heat {J/kg-K}
  0.9,                                    ! Thermal Absorptance
  0.78,                                   ! Solar Absorptance
  0.78;                                   ! Visible Absorptance

OS:Material,
  {f2aa6421-2a5a-40ee-8a63-e12f8c64d74f}, ! Handle
  Wall Insulation [2],                    ! Name
  MediumRough,                            ! Roughness
  0.0746874,                              ! Thickness {m}
  0.045,                                  ! Conductivity {W/m-K}
  265,                                    ! Density {kg/m3}
  836.8,                                  ! Specific Heat {J/kg-K}
  0.9,                                    ! Thermal Absorptance
  0.7,                                    ! Solar Absorptance
  0.7;                                    ! Visible Absorptance

OS:Material,
  {f1d64491-45c2-4ecd-9252-8f78dce7ca61}, ! Handle
  1/2IN Gypsum,                           ! Name
  Smooth,                                 ! Roughness
  0.01271,                                ! Thickness {m}
  0.16,                                   ! Conductivity {W/m-K}
  784.9,                                  ! Density {kg/m3}
  830,                                    ! Specific Heat {J/kg-K}
  0.9,                                    ! Thermal Absorptance
  0.92,                                   ! Solar Absorptance
  0.92;                                   ! Visible Absorptance

OS:ComponentCost:LineItem,
  {255996a1-ea15-4a92-8ef7-b08e7183de04}, ! Handle
  90.1-2007 Res 2A Ext Wall Wood-Framed and Other, ! Name
  ,                                       ! Type
  Construction,                           ! Line Item Type
  90.1-2007 Res 2A Ext Wall Wood-Framed and Other, ! Item Name
  ,                                       ! Object End Use Key
  ,                                       ! Quantity {dimensionless}
  73.056,                                 ! Material Cost {$}
  CostPerArea;                            ! Material Cost Units

