
OS:Version,
  {adb291e1-2633-4039-8e19-9ea324b1c093}, ! Handle
  0.9.3;                                  ! Version Identifier

OS:Construction,
  {84c8a132-5a1e-4948-8230-aa601324ae37}, ! Handle
  90.1-2007 Res 2A Ext Wall Wood-Framed and Other, ! Name
  ,                                       ! Surface Rendering Name
  {f6811407-5db0-412c-a10e-70ed32ae664d}, ! Layer 1
  {3b2ac1c4-0269-44bc-8fd4-c9d4b0a01c36}, ! Layer 2
  {40283bd9-e32d-4ea5-bf2f-26cdebfcf7bb}; ! Layer 3

OS:Material,
  {f6811407-5db0-412c-a10e-70ed32ae664d}, ! Handle
  Wood Siding,                            ! Name
  MediumSmooth,                           ! Roughness
  0.01,                                   ! Thickness {m}
  0.11,                                   ! Conductivity {W/m-K}
  544.62,                                 ! Density {kg/m3}
  1210,                                   ! Specific Heat {J/kg-K}
  0.9,                                    ! Thermal Absorptance
  0.78,                                   ! Solar Absorptance
  0.78;                                   ! Visible Absorptance

OS:Material,
  {3b2ac1c4-0269-44bc-8fd4-c9d4b0a01c36}, ! Handle
  Wall Insulation [2],                    ! Name
  MediumRough,                            ! Roughness
  0.0746874,                              ! Thickness {m}
  0.045,                                  ! Conductivity {W/m-K}
  265,                                    ! Density {kg/m3}
  836.8,                                  ! Specific Heat {J/kg-K}
  0.9,                                    ! Thermal Absorptance
  0.7,                                    ! Solar Absorptance
  0.7;                                    ! Visible Absorptance

OS:Material,
  {40283bd9-e32d-4ea5-bf2f-26cdebfcf7bb}, ! Handle
  1/2IN Gypsum,                           ! Name
  Smooth,                                 ! Roughness
  0.01271,                                ! Thickness {m}
  0.16,                                   ! Conductivity {W/m-K}
  784.9,                                  ! Density {kg/m3}
  830,                                    ! Specific Heat {J/kg-K}
  0.9,                                    ! Thermal Absorptance
  0.92,                                   ! Solar Absorptance
  0.92;                                   ! Visible Absorptance

OS:ComponentCost:LineItem,
  {76455717-95d0-410d-b62f-c3fb19dd3104}, ! Handle
  90.1-2007 Res 2A Ext Wall Wood-Framed and Other, ! Name
  ,                                       ! Type
  Construction,                           ! Line Item Type
  90.1-2007 Res 2A Ext Wall Wood-Framed and Other, ! Item Name
  ,                                       ! Object End Use Key
  ,                                       ! Quantity {dimensionless}
  73.056,                                 ! Material Cost {$}
  CostPerArea;                            ! Material Cost Units

OS:ComponentData,
  {85825f76-e342-419a-9b6d-830ec0fcb6a7}, ! Handle
  Component Data 1,                       ! Name
  {8728705f-17ec-403d-af04-69a9be39dfcc}, ! UUID
  {87a7bdf4-1248-4b9d-954a-4a4794977174}, ! Version UUID
  1363981839,                             ! Creation Timestamp
  1363981839,                             ! Version Timestamp
  {84c8a132-5a1e-4948-8230-aa601324ae37}, ! Name of Object 1
  {f6811407-5db0-412c-a10e-70ed32ae664d}, ! Name of Object 2
  {3b2ac1c4-0269-44bc-8fd4-c9d4b0a01c36}, ! Name of Object 3
  {40283bd9-e32d-4ea5-bf2f-26cdebfcf7bb}, ! Name of Object 4
  {76455717-95d0-410d-b62f-c3fb19dd3104}; ! Name of Object 5

