
OS:Version,
  {837cd8a3-ebaa-4164-9d98-4b29c2f93e75}, ! Handle
  0.9.3;                                  ! Version Identifier

OS:Material,
  {50345a96-c640-4841-b598-927d127efe24}, ! Handle
  Wall Insulation [1],                    ! Name
  MediumRough,                            ! Roughness
  0.0373223,                              ! Thickness {m}
  0.045,                                  ! Conductivity {W/m-K}
  265,                                    ! Density {kg/m3}
  836.8,                                  ! Specific Heat {J/kg-K}
  0.9,                                    ! Thermal Absorptance
  0.7,                                    ! Solar Absorptance
  0.7;                                    ! Visible Absorptance

OS:ComponentCost:LineItem,
  {f03f0d98-fe73-4249-b728-e1ccd31a0715}, ! Handle
  90.1-2001 Nonres B11 Ext Wall Steel-Framed, ! Name
  ,                                       ! Type
  Construction,                           ! Line Item Type
  90.1-2001 Nonres B11 Ext Wall Steel-Framed, ! Item Name
  ,                                       ! Object End Use Key
  ,                                       ! Quantity {dimensionless}
  87.08,                                  ! Material Cost {$}
  CostPerArea;                            ! Material Cost Units

OS:Material,
  {70fef254-a5ad-4665-9c9b-d9f14737c86e}, ! Handle
  1/2IN Gypsum,                           ! Name
  Smooth,                                 ! Roughness
  0.01271,                                ! Thickness {m}
  0.16,                                   ! Conductivity {W/m-K}
  784.9,                                  ! Density {kg/m3}
  830,                                    ! Specific Heat {J/kg-K}
  0.9,                                    ! Thermal Absorptance
  0.92,                                   ! Solar Absorptance
  0.92;                                   ! Visible Absorptance

OS:Material:NoMass,
  {1ef2dbef-d9be-48c2-8ff4-477467fdf5e8}, ! Handle
  MAT-SHEATH,                             ! Name
  Rough,                                  ! Roughness
  0.36256,                                ! Thermal Resistance {m2-K/W}
  0.9,                                    ! Thermal Absorptance
  0.7,                                    ! Solar Absorptance
  0.7;                                    ! Visible Absorptance

OS:Construction,
  {5099c4a6-b8d9-431b-a47f-f632ecbb4010}, ! Handle
  90.1-2001 Nonres B11 Ext Wall Steel-Framed, ! Name
  ,                                       ! Surface Rendering Name
  {1ef2dbef-d9be-48c2-8ff4-477467fdf5e8}, ! Layer 1
  {50345a96-c640-4841-b598-927d127efe24}, ! Layer 2
  {70fef254-a5ad-4665-9c9b-d9f14737c86e}; ! Layer 3

