
OS:Version,
  {3d5b57b4-81cf-4cab-86b6-8a757f3b3453}, ! Handle
  0.9.3;                                  ! Version Identifier

OS:Material,
  {3df8fa3b-8306-4a68-985d-20cfdab17d17}, ! Handle
  Roof Membrane,                          ! Name
  VeryRough,                              ! Roughness
  0.0095,                                 ! Thickness {m}
  0.16,                                   ! Conductivity {W/m-K}
  1121.29,                                ! Density {kg/m3}
  1460,                                   ! Specific Heat {J/kg-K}
  0.9,                                    ! Thermal Absorptance
  0.7,                                    ! Solar Absorptance
  0.7;                                    ! Visible Absorptance

OS:Construction,
  {930df9c1-9bd5-4b7d-8aac-e7e282c78b7b}, ! Handle
  90.1-2004 Nonres 1A Roof IEAD,          ! Name
  ,                                       ! Surface Rendering Name
  {3df8fa3b-8306-4a68-985d-20cfdab17d17}, ! Layer 1
  {bfdf86d5-1780-446e-bbda-1e6a37ec822e}, ! Layer 2
  {9fb8e7e9-f952-42f4-9e72-394ea9d8d0a6}; ! Layer 3

OS:Material,
  {bfdf86d5-1780-446e-bbda-1e6a37ec822e}, ! Handle
  Roof Insulation,                        ! Name
  MediumRough,                            ! Roughness
  0.124958,                               ! Thickness {m}
  0.049,                                  ! Conductivity {W/m-K}
  265,                                    ! Density {kg/m3}
  836.8,                                  ! Specific Heat {J/kg-K}
  0.9,                                    ! Thermal Absorptance
  0.7,                                    ! Solar Absorptance
  0.7;                                    ! Visible Absorptance

OS:Material,
  {9fb8e7e9-f952-42f4-9e72-394ea9d8d0a6}, ! Handle
  Metal Decking,                          ! Name
  MediumSmooth,                           ! Roughness
  0.001524,                               ! Thickness {m}
  45.006,                                 ! Conductivity {W/m-K}
  7680,                                   ! Density {kg/m3}
  418.4,                                  ! Specific Heat {J/kg-K}
  0.9,                                    ! Thermal Absorptance
  0.7,                                    ! Solar Absorptance
  0.3;                                    ! Visible Absorptance

OS:ComponentCost:LineItem,
  {a43be2e1-b542-4238-8807-0bcf4aaad15a}, ! Handle
  90.1-2004 Nonres 1A Roof IEAD,          ! Name
  ,                                       ! Type
  Construction,                           ! Line Item Type
  90.1-2004 Nonres 1A Roof IEAD,          ! Item Name
  ,                                       ! Object End Use Key
  ,                                       ! Quantity {dimensionless}
  49.208,                                 ! Material Cost {$}
  CostPerArea;                            ! Material Cost Units

