
OS:Version,
  {1668ec20-ebd8-4a48-86a3-8d498f56fcbf}, ! Handle
  0.9.3;                                  ! Version Identifier

OS:Construction,
  {06b8ce19-394e-4b23-9964-79b10488b43e}, ! Handle
  90.1-2001 Nonres B21 Window Fixed,      ! Name
  ,                                       ! Surface Rendering Name
  {2d8da274-9463-4cff-a092-b7e073080744}; ! Layer 1

OS:WindowMaterial:Glazing,
  {2d8da274-9463-4cff-a092-b7e073080744}, ! Handle
  Theoretical Glass [44],                 ! Name
  SpectralAverage,                        ! Optical Data Type
  ,                                       ! Window Glass Spectral Data Set Name
  0.003,                                  ! Thickness {m}
  0.455617,                               ! Solar Transmittance at Normal Incidence
  0.494383,                               ! Front Side Solar Reflectance at Normal Incidence
  0.494383,                               ! Back Side Solar Reflectance at Normal Incidence
  0.493419,                               ! Visible Transmittance at Normal Incidence
  0.456581,                               ! Front Side Visible Reflectance at Normal Incidence
  0.456581,                               ! Back Side Visible Reflectance at Normal Incidence
  0,                                      ! Infrared Transmittance at Normal Incidence
  0.9,                                    ! Front Side Infrared Hemispherical Emissivity
  0.9,                                    ! Back Side Infrared Hemispherical Emissivity
  0.00882224;                             ! Conductivity {W/m-K}

OS:ComponentCost:LineItem,
  {0b03e4f0-ada4-4253-8f13-736b40241f37}, ! Handle
  90.1-2001 Nonres B21 Window Fixed,      ! Name
  ,                                       ! Type
  Construction,                           ! Line Item Type
  90.1-2001 Nonres B21 Window Fixed,      ! Item Name
  ,                                       ! Object End Use Key
  ,                                       ! Quantity {dimensionless}
  619.19,                                 ! Material Cost {$}
  CostPerArea;                            ! Material Cost Units

