
OS:Version,
  {428b9730-d44a-47ec-b64e-59e68ac4ce1c}, ! Handle
  0.9.3;                                  ! Version Identifier

OS:Construction,
  {cb1e3a7d-ac48-44f6-80ed-7398df346c43}, ! Handle
  90.1-2007 Res 8A Exposed Floor Mass,    ! Name
  ,                                       ! Surface Rendering Name
  {4e2ae1be-f73e-4ea5-bf96-f6ec734b5d15}, ! Layer 1
  {3582a281-5f8d-4efe-854d-934d8dc28801}, ! Layer 2
  {b2dcd03c-78b2-4442-8d07-8a93c50cd233}; ! Layer 3

OS:Material,
  {4e2ae1be-f73e-4ea5-bf96-f6ec734b5d15}, ! Handle
  Floor Insulation [6],                   ! Name
  MediumRough,                            ! Roughness
  0.127418,                               ! Thickness {m}
  0.045,                                  ! Conductivity {W/m-K}
  265,                                    ! Density {kg/m3}
  836.8,                                  ! Specific Heat {J/kg-K}
  0.9,                                    ! Thermal Absorptance
  0.7,                                    ! Solar Absorptance
  0.7;                                    ! Visible Absorptance

OS:Material,
  {3582a281-5f8d-4efe-854d-934d8dc28801}, ! Handle
  MAT-CC05 8 HW CONCRETE,                 ! Name
  Rough,                                  ! Roughness
  0.20321,                                ! Thickness {m}
  1.311,                                  ! Conductivity {W/m-K}
  2240,                                   ! Density {kg/m3}
  836.8,                                  ! Specific Heat {J/kg-K}
  0.9,                                    ! Thermal Absorptance
  0.7,                                    ! Solar Absorptance
  0.7;                                    ! Visible Absorptance

OS:Material:NoMass,
  {b2dcd03c-78b2-4442-8d07-8a93c50cd233}, ! Handle
  CP02 CARPET PAD,                        ! Name
  VeryRough,                              ! Roughness
  0.21648,                                ! Thermal Resistance {m2-K/W}
  0.9,                                    ! Thermal Absorptance
  0.7,                                    ! Solar Absorptance
  0.8;                                    ! Visible Absorptance

OS:ComponentCost:LineItem,
  {d551d6f2-7919-4cc3-af93-45f181c67b2b}, ! Handle
  90.1-2007 Res 8A Exposed Floor Mass,    ! Name
  ,                                       ! Type
  Construction,                           ! Line Item Type
  90.1-2007 Res 8A Exposed Floor Mass,    ! Item Name
  ,                                       ! Object End Use Key
  ,                                       ! Quantity {dimensionless}
  60.108,                                 ! Material Cost {$}
  CostPerArea;                            ! Material Cost Units

OS:ComponentData,
  {be263396-7b2a-402d-a1ac-113bcb8223ab}, ! Handle
  Component Data 1,                       ! Name
  {69d11b0c-cdcd-4132-bdd7-1cb04cca03d3}, ! UUID
  {9d952e62-65a9-47d6-b58d-1cebdbcacf37}, ! Version UUID
  1363981878,                             ! Creation Timestamp
  1363981878,                             ! Version Timestamp
  {cb1e3a7d-ac48-44f6-80ed-7398df346c43}, ! Name of Object 1
  {4e2ae1be-f73e-4ea5-bf96-f6ec734b5d15}, ! Name of Object 2
  {3582a281-5f8d-4efe-854d-934d8dc28801}, ! Name of Object 3
  {b2dcd03c-78b2-4442-8d07-8a93c50cd233}, ! Name of Object 4
  {d551d6f2-7919-4cc3-af93-45f181c67b2b}; ! Name of Object 5

