
OS:Version,
  {c8bda111-8dd8-48e7-b0ee-3e29421041da}, ! Handle
  0.9.3;                                  ! Version Identifier

OS:Material,
  {7130c05a-5c73-4038-8b65-33a1bc2e331e}, ! Handle
  MAT-CC05 8 HW CONCRETE,                 ! Name
  Rough,                                  ! Roughness
  0.20321,                                ! Thickness {m}
  1.311,                                  ! Conductivity {W/m-K}
  2240,                                   ! Density {kg/m3}
  836.8,                                  ! Specific Heat {J/kg-K}
  0.9,                                    ! Thermal Absorptance
  0.7,                                    ! Solar Absorptance
  0.7;                                    ! Visible Absorptance

OS:Material,
  {b03ed015-c793-4751-bd78-3d1bc330549b}, ! Handle
  Floor Insulation [6],                   ! Name
  MediumRough,                            ! Roughness
  0.127418,                               ! Thickness {m}
  0.045,                                  ! Conductivity {W/m-K}
  265,                                    ! Density {kg/m3}
  836.8,                                  ! Specific Heat {J/kg-K}
  0.9,                                    ! Thermal Absorptance
  0.7,                                    ! Solar Absorptance
  0.7;                                    ! Visible Absorptance

OS:Material:NoMass,
  {5f19f4a1-5d6b-4114-9166-d7eaf89fd7af}, ! Handle
  CP02 CARPET PAD,                        ! Name
  VeryRough,                              ! Roughness
  0.21648,                                ! Thermal Resistance {m2-K/W}
  0.9,                                    ! Thermal Absorptance
  0.7,                                    ! Solar Absorptance
  0.8;                                    ! Visible Absorptance

OS:Construction,
  {8f36f0d7-fabb-484c-afdc-8e8a927c3787}, ! Handle
  90.1-2007 Res 8A Exposed Floor Mass,    ! Name
  ,                                       ! Surface Rendering Name
  {b03ed015-c793-4751-bd78-3d1bc330549b}, ! Layer 1
  {7130c05a-5c73-4038-8b65-33a1bc2e331e}, ! Layer 2
  {5f19f4a1-5d6b-4114-9166-d7eaf89fd7af}; ! Layer 3

OS:ComponentCost:LineItem,
  {0605467d-1a56-4ee6-8d19-0ccb25e312eb}, ! Handle
  90.1-2007 Res 8A Exposed Floor Mass,    ! Name
  ,                                       ! Type
  Construction,                           ! Line Item Type
  90.1-2007 Res 8A Exposed Floor Mass,    ! Item Name
  ,                                       ! Object End Use Key
  ,                                       ! Quantity {dimensionless}
  60.108,                                 ! Material Cost {$}
  CostPerArea;                            ! Material Cost Units

