
OS:Version,
  {52cf7ff1-d8a3-41b2-b759-7270af1381da}, ! Handle
  0.9.3;                                  ! Version Identifier

OS:Material,
  {3180d311-31f5-4db8-a035-9eb4dce389dd}, ! Handle
  GP01 1/2 GYPSUM,                        ! Name
  Smooth,                                 ! Roughness
  0.01271,                                ! Thickness {m}
  0.16,                                   ! Conductivity {W/m-K}
  800,                                    ! Density {kg/m3}
  1090,                                   ! Specific Heat {J/kg-K}
  0.9,                                    ! Thermal Absorptance
  0.7,                                    ! Solar Absorptance
  0.5;                                    ! Visible Absorptance

OS:ComponentCost:LineItem,
  {9331f0f4-1577-474e-b065-c665c9268653}, ! Handle
  189.1-2009 Res 7A Int Wall,             ! Name
  ,                                       ! Type
  Construction,                           ! Line Item Type
  189.1-2009 Res 7A Int Wall,             ! Item Name
  ,                                       ! Object End Use Key
  ,                                       ! Quantity {dimensionless}
  0,                                      ! Material Cost {$}
  CostPerArea;                            ! Material Cost Units

OS:Material,
  {9416825e-4276-466f-ab91-720355917472}, ! Handle
  GP01 1/2 GYPSUM 1,                      ! Name
  Smooth,                                 ! Roughness
  0.01271,                                ! Thickness {m}
  0.16,                                   ! Conductivity {W/m-K}
  800,                                    ! Density {kg/m3}
  1090,                                   ! Specific Heat {J/kg-K}
  0.9,                                    ! Thermal Absorptance
  0.7,                                    ! Solar Absorptance
  0.5;                                    ! Visible Absorptance

OS:Construction,
  {229e0dc2-76b1-448b-ab33-4218fc4a1d1b}, ! Handle
  189.1-2009 Res 7A Int Wall,             ! Name
  ,                                       ! Surface Rendering Name
  {3180d311-31f5-4db8-a035-9eb4dce389dd}, ! Layer 1
  {3180d311-31f5-4db8-a035-9eb4dce389dd}; ! Layer 2

