
OS:Version,
  {e20607e5-366a-47a8-8bbb-dbe0ed6c1524}, ! Handle
  0.9.3;                                  ! Version Identifier

OS:Material,
  {ae354026-65dd-4708-8509-78a4a7384f27}, ! Handle
  1IN Wood Decking,                       ! Name
  MediumSmooth,                           ! Roughness
  0.0254,                                 ! Thickness {m}
  0.1211,                                 ! Conductivity {W/m-K}
  593,                                    ! Density {kg/m3}
  2510,                                   ! Specific Heat {J/kg-K}
  0.9,                                    ! Thermal Absorptance
  0.78,                                   ! Solar Absorptance
  0.78;                                   ! Visible Absorptance

OS:ComponentCost:LineItem,
  {63b641f6-238a-44c4-a573-62bb9051a5bd}, ! Handle
  90.1-2001 Nonres B24 Roof Attic and Other, ! Name
  ,                                       ! Type
  Construction,                           ! Line Item Type
  90.1-2001 Nonres B24 Roof Attic and Other, ! Item Name
  ,                                       ! Object End Use Key
  ,                                       ! Quantity {dimensionless}
  34.757,                                 ! Material Cost {$}
  CostPerArea;                            ! Material Cost Units

OS:Material,
  {09978468-ca5a-4905-a5df-369f21a6588f}, ! Handle
  Roof Insulation [5],                    ! Name
  MediumRough,                            ! Roughness
  0.286906,                               ! Thickness {m}
  0.049,                                  ! Conductivity {W/m-K}
  265,                                    ! Density {kg/m3}
  836.8,                                  ! Specific Heat {J/kg-K}
  0.9,                                    ! Thermal Absorptance
  0.7,                                    ! Solar Absorptance
  0.7;                                    ! Visible Absorptance

OS:Construction,
  {7279ba0e-a02c-4f50-9805-a3351e842733}, ! Handle
  90.1-2001 Nonres B24 Roof Attic and Other, ! Name
  ,                                       ! Surface Rendering Name
  {44d39820-6454-4634-8bd1-11fa1789d42d}, ! Layer 1
  {ae354026-65dd-4708-8509-78a4a7384f27}, ! Layer 2
  {09978468-ca5a-4905-a5df-369f21a6588f}, ! Layer 3
  {ad682ce3-d034-40b0-adba-c934528cb340}; ! Layer 4

OS:Material,
  {44d39820-6454-4634-8bd1-11fa1789d42d}, ! Handle
  Wood Shingles,                          ! Name
  VeryRough,                              ! Roughness
  0.0178,                                 ! Thickness {m}
  0.115,                                  ! Conductivity {W/m-K}
  513,                                    ! Density {kg/m3}
  1255,                                   ! Specific Heat {J/kg-K}
  0.9,                                    ! Thermal Absorptance
  0.78,                                   ! Solar Absorptance
  0.78;                                   ! Visible Absorptance

OS:Material,
  {ad682ce3-d034-40b0-adba-c934528cb340}, ! Handle
  1/2IN Gypsum,                           ! Name
  Smooth,                                 ! Roughness
  0.01271,                                ! Thickness {m}
  0.16,                                   ! Conductivity {W/m-K}
  784.9,                                  ! Density {kg/m3}
  830,                                    ! Specific Heat {J/kg-K}
  0.9,                                    ! Thermal Absorptance
  0.92,                                   ! Solar Absorptance
  0.92;                                   ! Visible Absorptance

