
OS:Version,
  {690d3d3c-a60d-4cda-9834-af412041fd4d}, ! Handle
  0.9.3;                                  ! Version Identifier

OS:ComponentCost:LineItem,
  {44f208ff-48cb-4905-b6f1-2ce9e5910475}, ! Handle
  Title 24-2008 Nonres 4 Skylight Plastic Skylight with Curb, ! Name
  ,                                       ! Type
  Construction,                           ! Line Item Type
  Title 24-2008 Nonres 4 Skylight Plastic Skylight with Curb, ! Item Name
  ,                                       ! Object End Use Key
  ,                                       ! Quantity {dimensionless}
  480.601,                                ! Material Cost {$}
  CostPerArea;                            ! Material Cost Units

OS:Construction,
  {25c5fb64-571a-442b-9014-1e6058342280}, ! Handle
  Title 24-2008 Nonres 4 Skylight Plastic Skylight with Curb, ! Name
  ,                                       ! Surface Rendering Name
  {27eee481-f7d3-4bc4-8991-c685f931580b}; ! Layer 1

OS:WindowMaterial:Glazing,
  {27eee481-f7d3-4bc4-8991-c685f931580b}, ! Handle
  Theoretical Glass [674],                ! Name
  SpectralAverage,                        ! Optical Data Type
  ,                                       ! Window Glass Spectral Data Set Name
  0.003,                                  ! Thickness {m}
  0.676633,                               ! Solar Transmittance at Normal Incidence
  0.273367,                               ! Front Side Solar Reflectance at Normal Incidence
  0.273367,                               ! Back Side Solar Reflectance at Normal Incidence
  0.689609,                               ! Visible Transmittance at Normal Incidence
  0.260391,                               ! Front Side Visible Reflectance at Normal Incidence
  0.260391,                               ! Back Side Visible Reflectance at Normal Incidence
  0,                                      ! Infrared Transmittance at Normal Incidence
  0.91,                                   ! Front Side Infrared Hemispherical Emissivity
  0.91,                                   ! Back Side Infrared Hemispherical Emissivity
  0.387053;                               ! Conductivity {W/m-K}

