
OS:Version,
  {e5b40eb0-0e8f-41e1-acbd-6c9e4b50e137}, ! Handle
  0.9.3;                                  ! Version Identifier

OS:Construction,
  {3deb1887-87e1-4c19-8ea0-5be778f96cfc}, ! Handle
  Title 24-2008 Nonres 4 Skylight Plastic Skylight with Curb, ! Name
  ,                                       ! Surface Rendering Name
  {ce9ca18b-f4cb-44ac-81bc-9cd433c9d1ce}; ! Layer 1

OS:WindowMaterial:Glazing,
  {ce9ca18b-f4cb-44ac-81bc-9cd433c9d1ce}, ! Handle
  Theoretical Glass [674],                ! Name
  SpectralAverage,                        ! Optical Data Type
  ,                                       ! Window Glass Spectral Data Set Name
  0.003,                                  ! Thickness {m}
  0.676633,                               ! Solar Transmittance at Normal Incidence
  0.273367,                               ! Front Side Solar Reflectance at Normal Incidence
  0.273367,                               ! Back Side Solar Reflectance at Normal Incidence
  0.689609,                               ! Visible Transmittance at Normal Incidence
  0.260391,                               ! Front Side Visible Reflectance at Normal Incidence
  0.260391,                               ! Back Side Visible Reflectance at Normal Incidence
  0,                                      ! Infrared Transmittance at Normal Incidence
  0.91,                                   ! Front Side Infrared Hemispherical Emissivity
  0.91,                                   ! Back Side Infrared Hemispherical Emissivity
  0.387053;                               ! Conductivity {W/m-K}

OS:ComponentCost:LineItem,
  {127ce27d-4840-4c70-b843-f60f89331aeb}, ! Handle
  Title 24-2008 Nonres 4 Skylight Plastic Skylight with Curb, ! Name
  ,                                       ! Type
  Construction,                           ! Line Item Type
  Title 24-2008 Nonres 4 Skylight Plastic Skylight with Curb, ! Item Name
  ,                                       ! Object End Use Key
  ,                                       ! Quantity {dimensionless}
  480.601,                                ! Material Cost {$}
  CostPerArea;                            ! Material Cost Units

OS:ComponentData,
  {41a97152-b356-4fe7-9f5c-2f13781248c0}, ! Handle
  Component Data 1,                       ! Name
  {6ce0413d-04b3-41c7-9116-af5132fc9db3}, ! UUID
  {1141cac7-ae6c-4ef3-a21b-2e319c108a64}, ! Version UUID
  1363982017,                             ! Creation Timestamp
  1363982017,                             ! Version Timestamp
  {3deb1887-87e1-4c19-8ea0-5be778f96cfc}, ! Name of Object 1
  {ce9ca18b-f4cb-44ac-81bc-9cd433c9d1ce}, ! Name of Object 2
  {127ce27d-4840-4c70-b843-f60f89331aeb}; ! Name of Object 3

