
OS:Version,
  {39e05107-16a4-4306-bf8a-3b51a76f561b}, ! Handle
  0.9.3;                                  ! Version Identifier

OS:Construction,
  {e2a6dd17-d9f6-45cf-877a-69f2cdcb16be}, ! Handle
  90.1-1999 Res B15 Ext Slab Unheated - 8in Slab with Carpet, ! Name
  ,                                       ! Surface Rendering Name
  {47054afd-1585-49d2-b6bd-2fbfbfdf7761}, ! Layer 1
  {f151dab5-b8db-4092-b8c6-cfa43998c69e}; ! Layer 2

OS:Material,
  {47054afd-1585-49d2-b6bd-2fbfbfdf7761}, ! Handle
  MAT-CC05 8 HW CONCRETE,                 ! Name
  Rough,                                  ! Roughness
  0.20321,                                ! Thickness {m}
  1.311,                                  ! Conductivity {W/m-K}
  2240,                                   ! Density {kg/m3}
  836.8,                                  ! Specific Heat {J/kg-K}
  0.9,                                    ! Thermal Absorptance
  0.7,                                    ! Solar Absorptance
  0.7;                                    ! Visible Absorptance

OS:Material:NoMass,
  {f151dab5-b8db-4092-b8c6-cfa43998c69e}, ! Handle
  CP02 CARPET PAD,                        ! Name
  VeryRough,                              ! Roughness
  0.21648,                                ! Thermal Resistance {m2-K/W}
  0.9,                                    ! Thermal Absorptance
  0.7,                                    ! Solar Absorptance
  0.8;                                    ! Visible Absorptance

OS:ComponentCost:LineItem,
  {30973a38-7f8f-4848-a2be-44733983188d}, ! Handle
  90.1-1999 Res B15 Ext Slab Unheated - 8in Slab with Carpet, ! Name
  ,                                       ! Type
  Construction,                           ! Line Item Type
  90.1-1999 Res B15 Ext Slab Unheated - 8in Slab with Carpet, ! Item Name
  ,                                       ! Object End Use Key
  ,                                       ! Quantity {dimensionless}
  45.52,                                  ! Material Cost {$}
  CostPerArea;                            ! Material Cost Units

