
OS:Version,
  {4927cd47-5066-42cf-b634-9f80a41b4e38}, ! Handle
  0.9.3;                                  ! Version Identifier

OS:Construction,
  {e8881e73-a493-42a6-b7fc-c1026b3ac658}, ! Handle
  90.1-2001 Res B2 Ext Wall Steel-Framed, ! Name
  ,                                       ! Surface Rendering Name
  {ab681e41-b87f-4c25-97c8-44439e985940}, ! Layer 1
  {c2a73124-cf2b-4218-9263-270b8299c6ff}, ! Layer 2
  {fd198fd6-27ab-4346-b0a8-a6949e9fd26f}; ! Layer 3

OS:Material:NoMass,
  {ab681e41-b87f-4c25-97c8-44439e985940}, ! Handle
  MAT-SHEATH,                             ! Name
  Rough,                                  ! Roughness
  0.36256,                                ! Thermal Resistance {m2-K/W}
  0.9,                                    ! Thermal Absorptance
  0.7,                                    ! Solar Absorptance
  0.7;                                    ! Visible Absorptance

OS:Material,
  {c2a73124-cf2b-4218-9263-270b8299c6ff}, ! Handle
  Wall Insulation [1],                    ! Name
  MediumRough,                            ! Roughness
  0.0373223,                              ! Thickness {m}
  0.045,                                  ! Conductivity {W/m-K}
  265,                                    ! Density {kg/m3}
  836.8,                                  ! Specific Heat {J/kg-K}
  0.9,                                    ! Thermal Absorptance
  0.7,                                    ! Solar Absorptance
  0.7;                                    ! Visible Absorptance

OS:Material,
  {fd198fd6-27ab-4346-b0a8-a6949e9fd26f}, ! Handle
  1/2IN Gypsum,                           ! Name
  Smooth,                                 ! Roughness
  0.01271,                                ! Thickness {m}
  0.16,                                   ! Conductivity {W/m-K}
  784.9,                                  ! Density {kg/m3}
  830,                                    ! Specific Heat {J/kg-K}
  0.9,                                    ! Thermal Absorptance
  0.92,                                   ! Solar Absorptance
  0.92;                                   ! Visible Absorptance

OS:ComponentCost:LineItem,
  {02546c82-1dde-4a87-9728-7dec92ae1ffc}, ! Handle
  90.1-2001 Res B2 Ext Wall Steel-Framed, ! Name
  ,                                       ! Type
  Construction,                           ! Line Item Type
  90.1-2001 Res B2 Ext Wall Steel-Framed, ! Item Name
  ,                                       ! Object End Use Key
  ,                                       ! Quantity {dimensionless}
  87.08,                                  ! Material Cost {$}
  CostPerArea;                            ! Material Cost Units

OS:ComponentData,
  {59ba5baf-034a-4a50-8b32-6d71f73ddca8}, ! Handle
  Component Data 1,                       ! Name
  {c77b6dbf-6ebc-4e13-8aa8-44179c71d82c}, ! UUID
  {18f13e8f-6004-4446-8c9e-9e16b878faf5}, ! Version UUID
  1363981452,                             ! Creation Timestamp
  1363981452,                             ! Version Timestamp
  {e8881e73-a493-42a6-b7fc-c1026b3ac658}, ! Name of Object 1
  {ab681e41-b87f-4c25-97c8-44439e985940}, ! Name of Object 2
  {c2a73124-cf2b-4218-9263-270b8299c6ff}, ! Name of Object 3
  {fd198fd6-27ab-4346-b0a8-a6949e9fd26f}, ! Name of Object 4
  {02546c82-1dde-4a87-9728-7dec92ae1ffc}; ! Name of Object 5

