
OS:Version,
  {6211d7fc-d7d1-49b5-b96c-19a20bb64997}, ! Handle
  0.9.3;                                  ! Version Identifier

OS:ComponentCost:LineItem,
  {3d2342e6-bb19-4cac-911e-9596794c8e52}, ! Handle
  90.1-2001 Res B2 Ext Wall Steel-Framed, ! Name
  ,                                       ! Type
  Construction,                           ! Line Item Type
  90.1-2001 Res B2 Ext Wall Steel-Framed, ! Item Name
  ,                                       ! Object End Use Key
  ,                                       ! Quantity {dimensionless}
  87.08,                                  ! Material Cost {$}
  CostPerArea;                            ! Material Cost Units

OS:Material,
  {9001179d-eebe-4f1d-9262-e9d33c34dae2}, ! Handle
  Wall Insulation [1],                    ! Name
  MediumRough,                            ! Roughness
  0.0373223,                              ! Thickness {m}
  0.045,                                  ! Conductivity {W/m-K}
  265,                                    ! Density {kg/m3}
  836.8,                                  ! Specific Heat {J/kg-K}
  0.9,                                    ! Thermal Absorptance
  0.7,                                    ! Solar Absorptance
  0.7;                                    ! Visible Absorptance

OS:Material,
  {e8fd9d01-24aa-4e10-aa24-fc9d78575073}, ! Handle
  1/2IN Gypsum,                           ! Name
  Smooth,                                 ! Roughness
  0.01271,                                ! Thickness {m}
  0.16,                                   ! Conductivity {W/m-K}
  784.9,                                  ! Density {kg/m3}
  830,                                    ! Specific Heat {J/kg-K}
  0.9,                                    ! Thermal Absorptance
  0.92,                                   ! Solar Absorptance
  0.92;                                   ! Visible Absorptance

OS:Construction,
  {322657ef-bf90-4eae-b34d-656afd28231c}, ! Handle
  90.1-2001 Res B2 Ext Wall Steel-Framed, ! Name
  ,                                       ! Surface Rendering Name
  {d5cf0b2d-5fe5-4dcf-9e20-affec85a9f73}, ! Layer 1
  {9001179d-eebe-4f1d-9262-e9d33c34dae2}, ! Layer 2
  {e8fd9d01-24aa-4e10-aa24-fc9d78575073}; ! Layer 3

OS:Material:NoMass,
  {d5cf0b2d-5fe5-4dcf-9e20-affec85a9f73}, ! Handle
  MAT-SHEATH,                             ! Name
  Rough,                                  ! Roughness
  0.36256,                                ! Thermal Resistance {m2-K/W}
  0.9,                                    ! Thermal Absorptance
  0.7,                                    ! Solar Absorptance
  0.7;                                    ! Visible Absorptance

