
OS:Version,
  {a30c0391-620b-409b-a615-6520bb6875a0}, ! Handle
  0.9.3;                                  ! Version Identifier

OS:Construction,
  {2dab7ad0-b4b4-4ab0-8c8d-01993b7a9461}, ! Handle
  90.1-1999 Nonres B5 Window Fixed,       ! Name
  ,                                       ! Surface Rendering Name
  {31d66f66-5ff2-4a23-8f07-67e7d1fb78e3}; ! Layer 1

OS:WindowMaterial:Glazing,
  {31d66f66-5ff2-4a23-8f07-67e7d1fb78e3}, ! Handle
  Theoretical Glass [2],                  ! Name
  SpectralAverage,                        ! Optical Data Type
  ,                                       ! Window Glass Spectral Data Set Name
  0.003,                                  ! Thickness {m}
  0.426406,                               ! Solar Transmittance at Normal Incidence
  0.523594,                               ! Front Side Solar Reflectance at Normal Incidence
  0.523594,                               ! Back Side Solar Reflectance at Normal Incidence
  0.469723,                               ! Visible Transmittance at Normal Incidence
  0.480277,                               ! Front Side Visible Reflectance at Normal Incidence
  0.480277,                               ! Back Side Visible Reflectance at Normal Incidence
  0,                                      ! Infrared Transmittance at Normal Incidence
  0.999,                                  ! Front Side Infrared Hemispherical Emissivity
  0.999,                                  ! Back Side Infrared Hemispherical Emissivity
  3.36874;                                ! Conductivity {W/m-K}

OS:ComponentCost:LineItem,
  {522e41a6-ea2a-4789-95ae-a0dee6e36e05}, ! Handle
  90.1-1999 Nonres B5 Window Fixed,       ! Name
  ,                                       ! Type
  Construction,                           ! Line Item Type
  90.1-1999 Nonres B5 Window Fixed,       ! Item Name
  ,                                       ! Object End Use Key
  ,                                       ! Quantity {dimensionless}
  462.094,                                ! Material Cost {$}
  CostPerArea;                            ! Material Cost Units

