
OS:Version,
  {9227ace1-ca19-4105-ab3e-c5eed61d0360}, ! Handle
  0.9.3;                                  ! Version Identifier

OS:Material,
  {b2dab6a7-2f14-47bf-99f7-4d0a136ba11f}, ! Handle
  Metal Roofing,                          ! Name
  MediumSmooth,                           ! Roughness
  0.001524,                               ! Thickness {m}
  45.006,                                 ! Conductivity {W/m-K}
  7680,                                   ! Density {kg/m3}
  418.4,                                  ! Specific Heat {J/kg-K}
  0.9,                                    ! Thermal Absorptance
  0.7,                                    ! Solar Absorptance
  0.3;                                    ! Visible Absorptance

OS:Construction,
  {38cae523-6051-487e-91c2-f25144979284}, ! Handle
  AEDG-SmOffice 5B Roof Metal Building,   ! Name
  ,                                       ! Surface Rendering Name
  {b2dab6a7-2f14-47bf-99f7-4d0a136ba11f}, ! Layer 1
  {dfc455ac-cabe-4ba1-a20d-57a1c6536640}; ! Layer 2

OS:Material,
  {dfc455ac-cabe-4ba1-a20d-57a1c6536640}, ! Handle
  Roof Insulation [8],                    ! Name
  MediumRough,                            ! Roughness
  0.166908,                               ! Thickness {m}
  0.049,                                  ! Conductivity {W/m-K}
  265,                                    ! Density {kg/m3}
  836.8,                                  ! Specific Heat {J/kg-K}
  0.9,                                    ! Thermal Absorptance
  0.7,                                    ! Solar Absorptance
  0.7;                                    ! Visible Absorptance

OS:ComponentCost:LineItem,
  {501025fa-71fc-4808-99eb-f96fca334780}, ! Handle
  AEDG-SmOffice 5B Roof Metal Building,   ! Name
  ,                                       ! Type
  Construction,                           ! Line Item Type
  AEDG-SmOffice 5B Roof Metal Building,   ! Item Name
  ,                                       ! Object End Use Key
  ,                                       ! Quantity {dimensionless}
  42.184,                                 ! Material Cost {$}
  CostPerArea;                            ! Material Cost Units

