
OS:Version,
  {8584de04-b490-4c98-b3a5-172b50d1d97e}, ! Handle
  0.9.3;                                  ! Version Identifier

OS:ComponentCost:LineItem,
  {b24171ce-152e-4fe3-95e1-82da2942cf27}, ! Handle
  90.1-1999 Nonres B16 Ext Wall Wood-Framed and Other, ! Name
  ,                                       ! Type
  Construction,                           ! Line Item Type
  90.1-1999 Nonres B16 Ext Wall Wood-Framed and Other, ! Item Name
  ,                                       ! Object End Use Key
  ,                                       ! Quantity {dimensionless}
  73.056,                                 ! Material Cost {$}
  CostPerArea;                            ! Material Cost Units

OS:Material,
  {d982a957-c059-4b64-9aba-fc88f0402f9d}, ! Handle
  Wall Insulation [2],                    ! Name
  MediumRough,                            ! Roughness
  0.0746874,                              ! Thickness {m}
  0.045,                                  ! Conductivity {W/m-K}
  265,                                    ! Density {kg/m3}
  836.8,                                  ! Specific Heat {J/kg-K}
  0.9,                                    ! Thermal Absorptance
  0.7,                                    ! Solar Absorptance
  0.7;                                    ! Visible Absorptance

OS:Construction,
  {c3c8c755-d9da-494a-9486-0209c5abe803}, ! Handle
  90.1-1999 Nonres B16 Ext Wall Wood-Framed and Other, ! Name
  ,                                       ! Surface Rendering Name
  {89a0ce04-89f9-44d8-b23d-e4e44dc75d4a}, ! Layer 1
  {d982a957-c059-4b64-9aba-fc88f0402f9d}, ! Layer 2
  {fbeb44c2-5a47-4dbd-b677-6f1a994343f5}; ! Layer 3

OS:Material,
  {89a0ce04-89f9-44d8-b23d-e4e44dc75d4a}, ! Handle
  Wood Siding,                            ! Name
  MediumSmooth,                           ! Roughness
  0.01,                                   ! Thickness {m}
  0.11,                                   ! Conductivity {W/m-K}
  544.62,                                 ! Density {kg/m3}
  1210,                                   ! Specific Heat {J/kg-K}
  0.9,                                    ! Thermal Absorptance
  0.78,                                   ! Solar Absorptance
  0.78;                                   ! Visible Absorptance

OS:Material,
  {fbeb44c2-5a47-4dbd-b677-6f1a994343f5}, ! Handle
  1/2IN Gypsum,                           ! Name
  Smooth,                                 ! Roughness
  0.01271,                                ! Thickness {m}
  0.16,                                   ! Conductivity {W/m-K}
  784.9,                                  ! Density {kg/m3}
  830,                                    ! Specific Heat {J/kg-K}
  0.9,                                    ! Thermal Absorptance
  0.92,                                   ! Solar Absorptance
  0.92;                                   ! Visible Absorptance

