
OS:Version,
  {793d0004-aec5-4534-a24b-785e0b133e87}, ! Handle
  0.9.3;                                  ! Version Identifier

OS:ComponentCost:LineItem,
  {f69daf60-1a27-4f0f-b53e-885eebb2e099}, ! Handle
  90.1 Windows Window Fixed 2443 Brk-Hpt-Ins-ClrSue, ! Name
  ,                                       ! Type
  Construction,                           ! Line Item Type
  90.1 Windows Window Fixed 2443 Brk-Hpt-Ins-ClrSue, ! Item Name
  ,                                       ! Object End Use Key
  ,                                       ! Quantity {dimensionless}
  0,                                      ! Material Cost {$}
  CostPerArea;                            ! Material Cost Units

OS:Construction,
  {4dce9f51-6ca1-4ff7-b1b7-7da239fb7a20}, ! Handle
  90.1 Windows Window Fixed 2443 Brk-Hpt-Ins-ClrSue, ! Name
  ,                                       ! Surface Rendering Name
  {0886724a-6c57-4ee7-ab88-d743e4081f9e}; ! Layer 1

OS:WindowMaterial:Glazing,
  {0886724a-6c57-4ee7-ab88-d743e4081f9e}, ! Handle
  Theoretical Glass [444],                ! Name
  SpectralAverage,                        ! Optical Data Type
  ,                                       ! Window Glass Spectral Data Set Name
  0.003,                                  ! Thickness {m}
  0.305712,                               ! Solar Transmittance at Normal Incidence
  0.644288,                               ! Front Side Solar Reflectance at Normal Incidence
  0.644288,                               ! Back Side Solar Reflectance at Normal Incidence
  0.469723,                               ! Visible Transmittance at Normal Incidence
  0.480277,                               ! Front Side Visible Reflectance at Normal Incidence
  0.480277,                               ! Back Side Visible Reflectance at Normal Incidence
  0,                                      ! Infrared Transmittance at Normal Incidence
  0.9,                                    ! Front Side Infrared Hemispherical Emissivity
  0.9,                                    ! Back Side Infrared Hemispherical Emissivity
  0.0116215;                              ! Conductivity {W/m-K}

