
OS:Version,
  {ba5cda1c-5198-465c-bd6e-1b7fe8b5af78}, ! Handle
  0.9.3;                                  ! Version Identifier

OS:Construction,
  {25b26aef-2b11-4797-9831-457ffc06673c}, ! Handle
  90.1 Windows Window Fixed 2443 Brk-Hpt-Ins-ClrSue, ! Name
  ,                                       ! Surface Rendering Name
  {f99a2dbe-c25f-4318-89d2-40293834cba4}; ! Layer 1

OS:WindowMaterial:Glazing,
  {f99a2dbe-c25f-4318-89d2-40293834cba4}, ! Handle
  Theoretical Glass [444],                ! Name
  SpectralAverage,                        ! Optical Data Type
  ,                                       ! Window Glass Spectral Data Set Name
  0.003,                                  ! Thickness {m}
  0.305712,                               ! Solar Transmittance at Normal Incidence
  0.644288,                               ! Front Side Solar Reflectance at Normal Incidence
  0.644288,                               ! Back Side Solar Reflectance at Normal Incidence
  0.469723,                               ! Visible Transmittance at Normal Incidence
  0.480277,                               ! Front Side Visible Reflectance at Normal Incidence
  0.480277,                               ! Back Side Visible Reflectance at Normal Incidence
  0,                                      ! Infrared Transmittance at Normal Incidence
  0.9,                                    ! Front Side Infrared Hemispherical Emissivity
  0.9,                                    ! Back Side Infrared Hemispherical Emissivity
  0.0116215;                              ! Conductivity {W/m-K}

OS:ComponentCost:LineItem,
  {abfacd8e-6a4d-4080-974c-fdfccb75bae2}, ! Handle
  90.1 Windows Window Fixed 2443 Brk-Hpt-Ins-ClrSue, ! Name
  ,                                       ! Type
  Construction,                           ! Line Item Type
  90.1 Windows Window Fixed 2443 Brk-Hpt-Ins-ClrSue, ! Item Name
  ,                                       ! Object End Use Key
  ,                                       ! Quantity {dimensionless}
  0,                                      ! Material Cost {$}
  CostPerArea;                            ! Material Cost Units

OS:ComponentData,
  {07e4c89d-7e9f-47c0-8861-1e2c313b2497}, ! Handle
  Component Data 1,                       ! Name
  {c9695984-ae18-4c04-a648-ca2c2b627aeb}, ! UUID
  {5bd799e6-eafd-4545-863e-4779998f56b8}, ! Version UUID
  1363981019,                             ! Creation Timestamp
  1363981019,                             ! Version Timestamp
  {25b26aef-2b11-4797-9831-457ffc06673c}, ! Name of Object 1
  {f99a2dbe-c25f-4318-89d2-40293834cba4}, ! Name of Object 2
  {abfacd8e-6a4d-4080-974c-fdfccb75bae2}; ! Name of Object 3

