
OS:Version,
  {b1af60e5-8307-4cab-bd59-1900475b04c1}, ! Handle
  0.9.3;                                  ! Version Identifier

OS:ComponentCost:LineItem,
  {f1ead785-3b09-4005-9881-665b9935ea05}, ! Handle
  90.1-1999 Nonres B6 Roof Attic and Other, ! Name
  ,                                       ! Type
  Construction,                           ! Line Item Type
  90.1-1999 Nonres B6 Roof Attic and Other, ! Item Name
  ,                                       ! Object End Use Key
  ,                                       ! Quantity {dimensionless}
  33.39,                                  ! Material Cost {$}
  CostPerArea;                            ! Material Cost Units

OS:Construction,
  {34e0db51-26c3-4059-a8bb-8641b39cea2f}, ! Handle
  90.1-1999 Nonres B6 Roof Attic and Other, ! Name
  ,                                       ! Surface Rendering Name
  {8b082689-9f48-4a61-abdf-8d908493e682}, ! Layer 1
  {908da5ea-3144-49fc-a347-cfdaec7b4f4e}, ! Layer 2
  {b79f1e0a-5c2b-490b-9983-79a08f75dfbd}, ! Layer 3
  {e2c78ba0-8d79-4a1d-a9cf-354ac9c66462}; ! Layer 4

OS:Material,
  {8b082689-9f48-4a61-abdf-8d908493e682}, ! Handle
  Wood Shingles,                          ! Name
  VeryRough,                              ! Roughness
  0.0178,                                 ! Thickness {m}
  0.115,                                  ! Conductivity {W/m-K}
  513,                                    ! Density {kg/m3}
  1255,                                   ! Specific Heat {J/kg-K}
  0.9,                                    ! Thermal Absorptance
  0.78,                                   ! Solar Absorptance
  0.78;                                   ! Visible Absorptance

OS:Material,
  {908da5ea-3144-49fc-a347-cfdaec7b4f4e}, ! Handle
  1IN Wood Decking,                       ! Name
  MediumSmooth,                           ! Roughness
  0.0254,                                 ! Thickness {m}
  0.1211,                                 ! Conductivity {W/m-K}
  593,                                    ! Density {kg/m3}
  2510,                                   ! Specific Heat {J/kg-K}
  0.9,                                    ! Thermal Absorptance
  0.78,                                   ! Solar Absorptance
  0.78;                                   ! Visible Absorptance

OS:Material,
  {b79f1e0a-5c2b-490b-9983-79a08f75dfbd}, ! Handle
  Roof Insulation [2],                    ! Name
  MediumRough,                            ! Roughness
  0.221604,                               ! Thickness {m}
  0.049,                                  ! Conductivity {W/m-K}
  265,                                    ! Density {kg/m3}
  836.8,                                  ! Specific Heat {J/kg-K}
  0.9,                                    ! Thermal Absorptance
  0.7,                                    ! Solar Absorptance
  0.7;                                    ! Visible Absorptance

OS:Material,
  {e2c78ba0-8d79-4a1d-a9cf-354ac9c66462}, ! Handle
  1/2IN Gypsum,                           ! Name
  Smooth,                                 ! Roughness
  0.01271,                                ! Thickness {m}
  0.16,                                   ! Conductivity {W/m-K}
  784.9,                                  ! Density {kg/m3}
  830,                                    ! Specific Heat {J/kg-K}
  0.9,                                    ! Thermal Absorptance
  0.92,                                   ! Solar Absorptance
  0.92;                                   ! Visible Absorptance

