
OS:Version,
  {a46aeb9c-e08e-4d34-a129-fa9710452479}, ! Handle
  0.9.3;                                  ! Version Identifier

OS:Construction,
  {5742a404-ce97-4452-ae46-d848bddd5a51}, ! Handle
  Title 24-2008 Nonres 10 Ext Slab Unheated - 4in Slab without Carpet, ! Name
  ,                                       ! Surface Rendering Name
  {7acd41c3-6ae4-49d0-9d3d-6d462219b95f}; ! Layer 1

OS:Material,
  {7acd41c3-6ae4-49d0-9d3d-6d462219b95f}, ! Handle
  MAT-CC05 4 HW CONCRETE,                 ! Name
  Rough,                                  ! Roughness
  0.1016,                                 ! Thickness {m}
  1.311,                                  ! Conductivity {W/m-K}
  2240,                                   ! Density {kg/m3}
  836.8,                                  ! Specific Heat {J/kg-K}
  0.9,                                    ! Thermal Absorptance
  0.7,                                    ! Solar Absorptance
  0.7;                                    ! Visible Absorptance

OS:ComponentCost:LineItem,
  {6292cd35-8154-4ed9-8740-f3bd879e712f}, ! Handle
  Title 24-2008 Nonres 10 Ext Slab Unheated - 4in Slab without Carpet, ! Name
  ,                                       ! Type
  Construction,                           ! Line Item Type
  Title 24-2008 Nonres 10 Ext Slab Unheated - 4in Slab without Carpet, ! Item Name
  ,                                       ! Object End Use Key
  ,                                       ! Quantity {dimensionless}
  45.52,                                  ! Material Cost {$}
  CostPerArea;                            ! Material Cost Units

OS:ComponentData,
  {ba1b81af-f35e-44f9-8e9e-2883cfe0d106}, ! Handle
  Component Data 1,                       ! Name
  {8e58e2c5-bdf3-457f-979d-6dc874a65bf6}, ! UUID
  {10e9a561-93bf-4dde-9846-8094600941fd}, ! Version UUID
  1363982063,                             ! Creation Timestamp
  1363982063,                             ! Version Timestamp
  {5742a404-ce97-4452-ae46-d848bddd5a51}, ! Name of Object 1
  {7acd41c3-6ae4-49d0-9d3d-6d462219b95f}, ! Name of Object 2
  {6292cd35-8154-4ed9-8740-f3bd879e712f}; ! Name of Object 3

