
OS:Version,
  {564115cc-80cb-41c8-ab68-308d165e1db7}, ! Handle
  0.9.3;                                  ! Version Identifier

OS:Construction,
  {3f80f3fc-4e7d-4bd2-b8d2-43c10ffef163}, ! Handle
  Title 24-2008 Nonres 10 Ext Slab Unheated - 4in Slab without Carpet, ! Name
  ,                                       ! Surface Rendering Name
  {d83e1781-84b2-4adc-a185-1b7d146ce942}; ! Layer 1

OS:Material,
  {d83e1781-84b2-4adc-a185-1b7d146ce942}, ! Handle
  MAT-CC05 4 HW CONCRETE,                 ! Name
  Rough,                                  ! Roughness
  0.1016,                                 ! Thickness {m}
  1.311,                                  ! Conductivity {W/m-K}
  2240,                                   ! Density {kg/m3}
  836.8,                                  ! Specific Heat {J/kg-K}
  0.9,                                    ! Thermal Absorptance
  0.7,                                    ! Solar Absorptance
  0.7;                                    ! Visible Absorptance

OS:ComponentCost:LineItem,
  {93d29f3e-71d5-4e96-951b-0def43152d2b}, ! Handle
  Title 24-2008 Nonres 10 Ext Slab Unheated - 4in Slab without Carpet, ! Name
  ,                                       ! Type
  Construction,                           ! Line Item Type
  Title 24-2008 Nonres 10 Ext Slab Unheated - 4in Slab without Carpet, ! Item Name
  ,                                       ! Object End Use Key
  ,                                       ! Quantity {dimensionless}
  45.52,                                  ! Material Cost {$}
  CostPerArea;                            ! Material Cost Units

