
OS:Version,
  {26729c12-c4c7-4622-bb27-bd89f620e343}, ! Handle
  0.9.3;                                  ! Version Identifier

OS:Material,
  {1104959d-a628-40a1-97bc-7060b28578ba}, ! Handle
  1/2IN Gypsum Top,                       ! Name
  Smooth,                                 ! Roughness
  0.01271,                                ! Thickness {m}
  0.16,                                   ! Conductivity {W/m-K}
  784.9,                                  ! Density {kg/m3}
  830,                                    ! Specific Heat {J/kg-K}
  0.9,                                    ! Thermal Absorptance
  0.92,                                   ! Solar Absorptance
  0.92;                                   ! Visible Absorptance

OS:Material,
  {6929ce09-ac97-4fd3-acdf-5afe31bea76e}, ! Handle
  1/2IN Gypsum Bottom,                    ! Name
  Smooth,                                 ! Roughness
  0.01271,                                ! Thickness {m}
  0.16,                                   ! Conductivity {W/m-K}
  784.9,                                  ! Density {kg/m3}
  830,                                    ! Specific Heat {J/kg-K}
  0.9,                                    ! Thermal Absorptance
  0.92,                                   ! Solar Absorptance
  0.92;                                   ! Visible Absorptance

OS:ComponentCost:LineItem,
  {4ce175fe-9340-492a-91c0-cf480dcea49a}, ! Handle
  90.1-2007 Res 1A Attic Floor,           ! Name
  ,                                       ! Type
  Construction,                           ! Line Item Type
  90.1-2007 Res 1A Attic Floor,           ! Item Name
  ,                                       ! Object End Use Key
  ,                                       ! Quantity {dimensionless}
  35.009,                                 ! Material Cost {$}
  CostPerArea;                            ! Material Cost Units

OS:Material,
  {dda5229c-0b1d-4c11-9ed6-76f16feacf5c}, ! Handle
  AtticFloor Insulation [1],              ! Name
  MediumRough,                            ! Roughness
  0.303719,                               ! Thickness {m}
  0.049,                                  ! Conductivity {W/m-K}
  265,                                    ! Density {kg/m3}
  836.8,                                  ! Specific Heat {J/kg-K}
  0.9,                                    ! Thermal Absorptance
  0.7,                                    ! Solar Absorptance
  0.7;                                    ! Visible Absorptance

OS:Construction,
  {9c0e400f-f8e4-4217-bf33-d89098428dd3}, ! Handle
  90.1-2007 Res 1A Attic Floor,           ! Name
  ,                                       ! Surface Rendering Name
  {1104959d-a628-40a1-97bc-7060b28578ba}, ! Layer 1
  {dda5229c-0b1d-4c11-9ed6-76f16feacf5c}, ! Layer 2
  {6929ce09-ac97-4fd3-acdf-5afe31bea76e}; ! Layer 3

