
OS:Version,
  {88ec9cb9-aafc-4e9a-a420-3d3cab195b98}, ! Handle
  0.9.3;                                  ! Version Identifier

OS:Construction,
  {1249c8fa-d664-4748-a8f4-1ade84ce2dd6}, ! Handle
  90.1-2007 Res 1A Attic Floor,           ! Name
  ,                                       ! Surface Rendering Name
  {599977c1-d252-4bfc-bbfb-de65a1172052}, ! Layer 1
  {3cfd7599-e30f-4a71-902b-c02bebad8ffc}, ! Layer 2
  {03e6cff7-5086-4775-afc7-c4e4de129b92}; ! Layer 3

OS:Material,
  {599977c1-d252-4bfc-bbfb-de65a1172052}, ! Handle
  1/2IN Gypsum Top,                       ! Name
  Smooth,                                 ! Roughness
  0.01271,                                ! Thickness {m}
  0.16,                                   ! Conductivity {W/m-K}
  784.9,                                  ! Density {kg/m3}
  830,                                    ! Specific Heat {J/kg-K}
  0.9,                                    ! Thermal Absorptance
  0.92,                                   ! Solar Absorptance
  0.92;                                   ! Visible Absorptance

OS:Material,
  {3cfd7599-e30f-4a71-902b-c02bebad8ffc}, ! Handle
  AtticFloor Insulation [1],              ! Name
  MediumRough,                            ! Roughness
  0.303719,                               ! Thickness {m}
  0.049,                                  ! Conductivity {W/m-K}
  265,                                    ! Density {kg/m3}
  836.8,                                  ! Specific Heat {J/kg-K}
  0.9,                                    ! Thermal Absorptance
  0.7,                                    ! Solar Absorptance
  0.7;                                    ! Visible Absorptance

OS:Material,
  {03e6cff7-5086-4775-afc7-c4e4de129b92}, ! Handle
  1/2IN Gypsum Bottom,                    ! Name
  Smooth,                                 ! Roughness
  0.01271,                                ! Thickness {m}
  0.16,                                   ! Conductivity {W/m-K}
  784.9,                                  ! Density {kg/m3}
  830,                                    ! Specific Heat {J/kg-K}
  0.9,                                    ! Thermal Absorptance
  0.92,                                   ! Solar Absorptance
  0.92;                                   ! Visible Absorptance

OS:ComponentCost:LineItem,
  {09c60db7-4136-49a8-9db6-d58eed36fe00}, ! Handle
  90.1-2007 Res 1A Attic Floor,           ! Name
  ,                                       ! Type
  Construction,                           ! Line Item Type
  90.1-2007 Res 1A Attic Floor,           ! Item Name
  ,                                       ! Object End Use Key
  ,                                       ! Quantity {dimensionless}
  35.009,                                 ! Material Cost {$}
  CostPerArea;                            ! Material Cost Units

OS:ComponentData,
  {ba3b1b8b-8f95-43cf-9fcb-9b62e1a5d678}, ! Handle
  Component Data 1,                       ! Name
  {45a89845-be83-4bc5-b191-642812cd6ca0}, ! UUID
  {563dc80e-dda4-433f-b927-d086ac3926f1}, ! Version UUID
  1363981831,                             ! Creation Timestamp
  1363981831,                             ! Version Timestamp
  {1249c8fa-d664-4748-a8f4-1ade84ce2dd6}, ! Name of Object 1
  {599977c1-d252-4bfc-bbfb-de65a1172052}, ! Name of Object 2
  {3cfd7599-e30f-4a71-902b-c02bebad8ffc}, ! Name of Object 3
  {03e6cff7-5086-4775-afc7-c4e4de129b92}, ! Name of Object 4
  {09c60db7-4136-49a8-9db6-d58eed36fe00}; ! Name of Object 5

