
OS:Version,
  {213d1f28-69a8-48f2-8686-1abef4ee7de9}, ! Handle
  0.9.3;                                  ! Version Identifier

OS:Material,
  {ef882a6c-b5a5-4203-9e24-89f467307d2e}, ! Handle
  1/2IN Gypsum,                           ! Name
  Smooth,                                 ! Roughness
  0.01271,                                ! Thickness {m}
  0.16,                                   ! Conductivity {W/m-K}
  784.9,                                  ! Density {kg/m3}
  830,                                    ! Specific Heat {J/kg-K}
  0.9,                                    ! Thermal Absorptance
  0.92,                                   ! Solar Absorptance
  0.92;                                   ! Visible Absorptance

OS:Material,
  {ea503254-4a7f-47f0-96bc-9ca54fe53e86}, ! Handle
  Wood Siding,                            ! Name
  MediumSmooth,                           ! Roughness
  0.01,                                   ! Thickness {m}
  0.11,                                   ! Conductivity {W/m-K}
  544.62,                                 ! Density {kg/m3}
  1210,                                   ! Specific Heat {J/kg-K}
  0.9,                                    ! Thermal Absorptance
  0.78,                                   ! Solar Absorptance
  0.78;                                   ! Visible Absorptance

OS:ComponentCost:LineItem,
  {1411e01e-6110-4191-9557-85755121b82c}, ! Handle
  90.1-2001 Res B11 Ext Wall Wood-Framed and Other, ! Name
  ,                                       ! Type
  Construction,                           ! Line Item Type
  90.1-2001 Res B11 Ext Wall Wood-Framed and Other, ! Item Name
  ,                                       ! Object End Use Key
  ,                                       ! Quantity {dimensionless}
  73.056,                                 ! Material Cost {$}
  CostPerArea;                            ! Material Cost Units

OS:Construction,
  {c9ccd028-4496-42af-838e-6fc3b8acbfd4}, ! Handle
  90.1-2001 Res B11 Ext Wall Wood-Framed and Other, ! Name
  ,                                       ! Surface Rendering Name
  {ea503254-4a7f-47f0-96bc-9ca54fe53e86}, ! Layer 1
  {e599c05c-2167-4cb7-b366-1af6d9519367}, ! Layer 2
  {ef882a6c-b5a5-4203-9e24-89f467307d2e}; ! Layer 3

OS:Material,
  {e599c05c-2167-4cb7-b366-1af6d9519367}, ! Handle
  Wall Insulation [2],                    ! Name
  MediumRough,                            ! Roughness
  0.0746874,                              ! Thickness {m}
  0.045,                                  ! Conductivity {W/m-K}
  265,                                    ! Density {kg/m3}
  836.8,                                  ! Specific Heat {J/kg-K}
  0.9,                                    ! Thermal Absorptance
  0.7,                                    ! Solar Absorptance
  0.7;                                    ! Visible Absorptance

