
OS:Version,
  {5b3b33fe-8a3d-438c-b547-8136a275dd9d}, ! Handle
  0.9.3;                                  ! Version Identifier

OS:Construction,
  {74f49f31-ce59-4361-84e8-80b727b916f3}, ! Handle
  90.1-2007 Res 8A Window Metal framing all other, ! Name
  ,                                       ! Surface Rendering Name
  {ba121981-c9b7-4429-a203-244058960f3a}; ! Layer 1

OS:WindowMaterial:Glazing,
  {ba121981-c9b7-4429-a203-244058960f3a}, ! Handle
  Theoretical Glass [191],                ! Name
  SpectralAverage,                        ! Optical Data Type
  ,                                       ! Window Glass Spectral Data Set Name
  0.003,                                  ! Thickness {m}
  0.444683,                               ! Solar Transmittance at Normal Incidence
  0.505317,                               ! Front Side Solar Reflectance at Normal Incidence
  0.505317,                               ! Back Side Solar Reflectance at Normal Incidence
  0.450308,                               ! Visible Transmittance at Normal Incidence
  0.499692,                               ! Front Side Visible Reflectance at Normal Incidence
  0.499692,                               ! Back Side Visible Reflectance at Normal Incidence
  0,                                      ! Infrared Transmittance at Normal Incidence
  0.9,                                    ! Front Side Infrared Hemispherical Emissivity
  0.9,                                    ! Back Side Infrared Hemispherical Emissivity
  0.0129892;                              ! Conductivity {W/m-K}

OS:ComponentCost:LineItem,
  {935e0a05-bcb6-410e-9053-0f0e4d4a6fcb}, ! Handle
  90.1-2007 Res 8A Window Metal framing all other, ! Name
  ,                                       ! Type
  Construction,                           ! Line Item Type
  90.1-2007 Res 8A Window Metal framing all other, ! Item Name
  ,                                       ! Object End Use Key
  ,                                       ! Quantity {dimensionless}
  508.362,                                ! Material Cost {$}
  CostPerArea;                            ! Material Cost Units

