
OS:Version,
  {ff52aebe-6d56-4646-9bd9-c76082615703}, ! Handle
  0.9.3;                                  ! Version Identifier

OS:Material,
  {7c9de049-e9c2-422c-a5df-fead7c086e0b}, ! Handle
  Wood Shingles,                          ! Name
  VeryRough,                              ! Roughness
  0.0178,                                 ! Thickness {m}
  0.115,                                  ! Conductivity {W/m-K}
  513,                                    ! Density {kg/m3}
  1255,                                   ! Specific Heat {J/kg-K}
  0.9,                                    ! Thermal Absorptance
  0.78,                                   ! Solar Absorptance
  0.78;                                   ! Visible Absorptance

OS:Material,
  {8455db55-f215-4936-ac1f-35b7a14ad9c7}, ! Handle
  Roof Insulation [5],                    ! Name
  MediumRough,                            ! Roughness
  0.286906,                               ! Thickness {m}
  0.049,                                  ! Conductivity {W/m-K}
  265,                                    ! Density {kg/m3}
  836.8,                                  ! Specific Heat {J/kg-K}
  0.9,                                    ! Thermal Absorptance
  0.7,                                    ! Solar Absorptance
  0.7;                                    ! Visible Absorptance

OS:Material,
  {1724d0de-c899-4929-992d-a06ec409d3d3}, ! Handle
  1IN Wood Decking,                       ! Name
  MediumSmooth,                           ! Roughness
  0.0254,                                 ! Thickness {m}
  0.1211,                                 ! Conductivity {W/m-K}
  593,                                    ! Density {kg/m3}
  2510,                                   ! Specific Heat {J/kg-K}
  0.9,                                    ! Thermal Absorptance
  0.78,                                   ! Solar Absorptance
  0.78;                                   ! Visible Absorptance

OS:Construction,
  {c508fdfb-3878-4c57-ae9e-0ef9fc8add70}, ! Handle
  90.1-2004 Nonres 8A Roof Attic and Other, ! Name
  ,                                       ! Surface Rendering Name
  {7c9de049-e9c2-422c-a5df-fead7c086e0b}, ! Layer 1
  {1724d0de-c899-4929-992d-a06ec409d3d3}, ! Layer 2
  {8455db55-f215-4936-ac1f-35b7a14ad9c7}, ! Layer 3
  {15fc0a2d-7024-46e3-a001-fa1a0a3080ab}; ! Layer 4

OS:Material,
  {15fc0a2d-7024-46e3-a001-fa1a0a3080ab}, ! Handle
  1/2IN Gypsum,                           ! Name
  Smooth,                                 ! Roughness
  0.01271,                                ! Thickness {m}
  0.16,                                   ! Conductivity {W/m-K}
  784.9,                                  ! Density {kg/m3}
  830,                                    ! Specific Heat {J/kg-K}
  0.9,                                    ! Thermal Absorptance
  0.92,                                   ! Solar Absorptance
  0.92;                                   ! Visible Absorptance

OS:ComponentCost:LineItem,
  {57dd362c-9f36-47ff-929a-a16c16595617}, ! Handle
  90.1-2004 Nonres 8A Roof Attic and Other, ! Name
  ,                                       ! Type
  Construction,                           ! Line Item Type
  90.1-2004 Nonres 8A Roof Attic and Other, ! Item Name
  ,                                       ! Object End Use Key
  ,                                       ! Quantity {dimensionless}
  34.757,                                 ! Material Cost {$}
  CostPerArea;                            ! Material Cost Units

