
OS:Version,
  {2def4e42-124e-48d9-a9c5-453d8dc77e7e}, ! Handle
  0.9.3;                                  ! Version Identifier

OS:Material,
  {95f9cee9-5fba-467e-b6ce-11fa5332865d}, ! Handle
  1IN Wood Decking,                       ! Name
  MediumSmooth,                           ! Roughness
  0.0254,                                 ! Thickness {m}
  0.1211,                                 ! Conductivity {W/m-K}
  593,                                    ! Density {kg/m3}
  2510,                                   ! Specific Heat {J/kg-K}
  0.9,                                    ! Thermal Absorptance
  0.78,                                   ! Solar Absorptance
  0.78;                                   ! Visible Absorptance

OS:ComponentCost:LineItem,
  {57d3f7e5-b22e-4668-a69d-a3bab6c0dfe7}, ! Handle
  90.1-2001 Res B25 Roof Attic and Other, ! Name
  ,                                       ! Type
  Construction,                           ! Line Item Type
  90.1-2001 Res B25 Roof Attic and Other, ! Item Name
  ,                                       ! Object End Use Key
  ,                                       ! Quantity {dimensionless}
  34.757,                                 ! Material Cost {$}
  CostPerArea;                            ! Material Cost Units

OS:Material,
  {b0097302-dd3f-40b9-bd9d-7837a310d72b}, ! Handle
  Wood Shingles,                          ! Name
  VeryRough,                              ! Roughness
  0.0178,                                 ! Thickness {m}
  0.115,                                  ! Conductivity {W/m-K}
  513,                                    ! Density {kg/m3}
  1255,                                   ! Specific Heat {J/kg-K}
  0.9,                                    ! Thermal Absorptance
  0.78,                                   ! Solar Absorptance
  0.78;                                   ! Visible Absorptance

OS:Material,
  {b3de493e-c7b5-4eb1-8fb0-1ee75154df69}, ! Handle
  Roof Insulation [5],                    ! Name
  MediumRough,                            ! Roughness
  0.286906,                               ! Thickness {m}
  0.049,                                  ! Conductivity {W/m-K}
  265,                                    ! Density {kg/m3}
  836.8,                                  ! Specific Heat {J/kg-K}
  0.9,                                    ! Thermal Absorptance
  0.7,                                    ! Solar Absorptance
  0.7;                                    ! Visible Absorptance

OS:Material,
  {c56a67ac-05e8-46c3-b92b-37995e936285}, ! Handle
  1/2IN Gypsum,                           ! Name
  Smooth,                                 ! Roughness
  0.01271,                                ! Thickness {m}
  0.16,                                   ! Conductivity {W/m-K}
  784.9,                                  ! Density {kg/m3}
  830,                                    ! Specific Heat {J/kg-K}
  0.9,                                    ! Thermal Absorptance
  0.92,                                   ! Solar Absorptance
  0.92;                                   ! Visible Absorptance

OS:Construction,
  {19a39d6a-bb4b-4faf-8f09-d58571019cc6}, ! Handle
  90.1-2001 Res B25 Roof Attic and Other, ! Name
  ,                                       ! Surface Rendering Name
  {b0097302-dd3f-40b9-bd9d-7837a310d72b}, ! Layer 1
  {95f9cee9-5fba-467e-b6ce-11fa5332865d}, ! Layer 2
  {b3de493e-c7b5-4eb1-8fb0-1ee75154df69}, ! Layer 3
  {c56a67ac-05e8-46c3-b92b-37995e936285}; ! Layer 4

