
OS:Version,
  {46d18927-8390-4802-84d6-2e4958d2c50f}, !- Handle
  1.0.6;                                  !- Version Identifier

OS:WindowMaterial:Glazing,
  {7dd42edc-5502-4c42-afd2-b0edb8f781b3}, !- Handle
  189.1-2011 NONRES 8A METAL FRAMING CURTAINWALL-STOREFRONT THEORETICAL GLAZING, !- Name
  SpectralAverage,                        !- Optical Data Type
  ,                                       !- Window Glass Spectral Data Set Name
  0.04189,                                !- Thickness {m}
  0.36619,                                !- Solar Transmittance at Normal Incidence
  0.44018,                                !- Front Side Solar Reflectance at Normal Incidence
  0.44018,                                !- Back Side Solar Reflectance at Normal Incidence
  0.36619,                                !- Visible Transmittance at Normal Incidence
  0.44018,                                !- Front Side Visible Reflectance at Normal Incidence
  0.44018,                                !- Back Side Visible Reflectance at Normal Incidence
  0,                                      !- Infrared Transmittance at Normal Incidence
  0.84,                                   !- Front Side Infrared Hemispherical Emissivity
  0.84,                                   !- Back Side Infrared Hemispherical Emissivity
  0.1012,                                 !- Conductivity {W/m-K}
  1,                                      !- Dirt Correction Factor for Solar and Visible Transmittance
  No;                                     !- Solar Diffusing

OS:Construction,
  {9b774426-6deb-4708-8cc9-57570222c8fd}, !- Handle
  189.1-2011 NONRES 8 METAL FRAMING CURTAINWALL-STOREFRONT, !- Name
  ,                                       !- Surface Rendering Name
  {7dd42edc-5502-4c42-afd2-b0edb8f781b3}; !- Layer 1

