
OS:Version,
  {c34af831-fe84-4d7f-9761-4325e0ffde48}, ! Handle
  0.9.3;                                  ! Version Identifier

OS:Construction,
  {f5eb2819-41d4-4c66-9393-c1e2066aa203}, ! Handle
  90.1-1999 Res B7 Ext Slab Unheated - 4in Slab without Carpet, ! Name
  ,                                       ! Surface Rendering Name
  {9ca0be51-72d0-4606-89fb-d241f51c8a9d}; ! Layer 1

OS:Material,
  {9ca0be51-72d0-4606-89fb-d241f51c8a9d}, ! Handle
  MAT-CC05 4 HW CONCRETE,                 ! Name
  Rough,                                  ! Roughness
  0.1016,                                 ! Thickness {m}
  1.311,                                  ! Conductivity {W/m-K}
  2240,                                   ! Density {kg/m3}
  836.8,                                  ! Specific Heat {J/kg-K}
  0.9,                                    ! Thermal Absorptance
  0.7,                                    ! Solar Absorptance
  0.7;                                    ! Visible Absorptance

OS:ComponentCost:LineItem,
  {fd4e00cf-3d84-4482-af84-bd4c23c091b4}, ! Handle
  90.1-1999 Res B7 Ext Slab Unheated - 4in Slab without Carpet, ! Name
  ,                                       ! Type
  Construction,                           ! Line Item Type
  90.1-1999 Res B7 Ext Slab Unheated - 4in Slab without Carpet, ! Item Name
  ,                                       ! Object End Use Key
  ,                                       ! Quantity {dimensionless}
  45.52,                                  ! Material Cost {$}
  CostPerArea;                            ! Material Cost Units

OS:ComponentData,
  {0ea4341b-7a8c-4a46-a2a8-de8ec6dc9b97}, ! Handle
  Component Data 1,                       ! Name
  {4ae62f0a-cf2d-4c5e-b8f8-07a6bbfa5079}, ! UUID
  {9b87b282-07b6-4080-be2e-8cb187d58f1e}, ! Version UUID
  1363981193,                             ! Creation Timestamp
  1363981193,                             ! Version Timestamp
  {f5eb2819-41d4-4c66-9393-c1e2066aa203}, ! Name of Object 1
  {9ca0be51-72d0-4606-89fb-d241f51c8a9d}, ! Name of Object 2
  {fd4e00cf-3d84-4482-af84-bd4c23c091b4}; ! Name of Object 3

