
OS:Version,
  {f627fe99-8287-4167-b222-a31bb96605da}, ! Handle
  0.9.3;                                  ! Version Identifier

OS:Material,
  {182df4d4-9d35-4f7b-9dec-a06eab2e963a}, ! Handle
  8IN Concrete HW,                        ! Name
  MediumRough,                            ! Roughness
  0.2033,                                 ! Thickness {m}
  1.7296,                                 ! Conductivity {W/m-K}
  2243,                                   ! Density {kg/m3}
  837,                                    ! Specific Heat {J/kg-K}
  0.9,                                    ! Thermal Absorptance
  0.65,                                   ! Solar Absorptance
  0.65;                                   ! Visible Absorptance

OS:ComponentCost:LineItem,
  {0b566f18-a1bd-4788-aacb-b7506bb29f8e}, ! Handle
  90.1-2004 Nonres 1A Ext Wall Mass,      ! Name
  ,                                       ! Type
  Construction,                           ! Line Item Type
  90.1-2004 Nonres 1A Ext Wall Mass,      ! Item Name
  ,                                       ! Object End Use Key
  ,                                       ! Quantity {dimensionless}
  41.397,                                 ! Material Cost {$}
  CostPerArea;                            ! Material Cost Units

OS:Material,
  {bac5475d-1df2-4efd-ac93-2cf217d0e477}, ! Handle
  1/2IN Gypsum,                           ! Name
  Smooth,                                 ! Roughness
  0.01271,                                ! Thickness {m}
  0.16,                                   ! Conductivity {W/m-K}
  784.9,                                  ! Density {kg/m3}
  830,                                    ! Specific Heat {J/kg-K}
  0.9,                                    ! Thermal Absorptance
  0.92,                                   ! Solar Absorptance
  0.92;                                   ! Visible Absorptance

OS:Material,
  {575793d8-4956-49dd-b23d-7511180593dc}, ! Handle
  1IN Stucco,                             ! Name
  Smooth,                                 ! Roughness
  0.0253,                                 ! Thickness {m}
  0.6918,                                 ! Conductivity {W/m-K}
  1858,                                   ! Density {kg/m3}
  837,                                    ! Specific Heat {J/kg-K}
  0.9,                                    ! Thermal Absorptance
  0.92,                                   ! Solar Absorptance
  0.92;                                   ! Visible Absorptance

OS:Construction,
  {daded825-10c9-4afc-b879-20f61038cbfb}, ! Handle
  90.1-2004 Nonres 1A Ext Wall Mass,      ! Name
  ,                                       ! Surface Rendering Name
  {575793d8-4956-49dd-b23d-7511180593dc}, ! Layer 1
  {182df4d4-9d35-4f7b-9dec-a06eab2e963a}, ! Layer 2
  {bac5475d-1df2-4efd-ac93-2cf217d0e477}; ! Layer 3

