
OS:Version,
  {9d57785a-7b40-4c2c-9219-ddb5f31fbd9c}, ! Handle
  0.9.3;                                  ! Version Identifier

OS:Construction,
  {6e2d80e6-cc57-4b69-9e38-f90365150c6c}, ! Handle
  90.1-2004 Nonres 6B Ext Slab Unheated - 4in Slab without Carpet, ! Name
  ,                                       ! Surface Rendering Name
  {b31fc36a-abf2-406c-a9fe-d1c5a084eee6}; ! Layer 1

OS:Material,
  {b31fc36a-abf2-406c-a9fe-d1c5a084eee6}, ! Handle
  MAT-CC05 4 HW CONCRETE,                 ! Name
  Rough,                                  ! Roughness
  0.1016,                                 ! Thickness {m}
  1.311,                                  ! Conductivity {W/m-K}
  2240,                                   ! Density {kg/m3}
  836.8,                                  ! Specific Heat {J/kg-K}
  0.9,                                    ! Thermal Absorptance
  0.7,                                    ! Solar Absorptance
  0.7;                                    ! Visible Absorptance

OS:ComponentCost:LineItem,
  {852cb872-3f51-4f03-97b5-f28cc07fb69c}, ! Handle
  90.1-2004 Nonres 6B Ext Slab Unheated - 4in Slab without Carpet, ! Name
  ,                                       ! Type
  Construction,                           ! Line Item Type
  90.1-2004 Nonres 6B Ext Slab Unheated - 4in Slab without Carpet, ! Item Name
  ,                                       ! Object End Use Key
  ,                                       ! Quantity {dimensionless}
  45.52,                                  ! Material Cost {$}
  CostPerArea;                            ! Material Cost Units

OS:ComponentData,
  {be507fd4-e2e3-4e98-9642-66627a2a9bfe}, ! Handle
  Component Data 1,                       ! Name
  {d19735d5-eaf1-4f8b-8848-9a22fa4d2597}, ! UUID
  {9a1f7005-3b83-4381-ba6e-4b80fbe08ed2}, ! Version UUID
  1363981687,                             ! Creation Timestamp
  1363981687,                             ! Version Timestamp
  {6e2d80e6-cc57-4b69-9e38-f90365150c6c}, ! Name of Object 1
  {b31fc36a-abf2-406c-a9fe-d1c5a084eee6}, ! Name of Object 2
  {852cb872-3f51-4f03-97b5-f28cc07fb69c}; ! Name of Object 3

