
OS:Version,
  {9caf96c4-1a19-4571-9a20-e925d7880ed3}, ! Handle
  0.9.3;                                  ! Version Identifier

OS:Construction,
  {7a918aa9-23f0-465b-95fa-57f8403e493f}, ! Handle
  90.1-2004 Nonres 6B Ext Slab Unheated - 4in Slab without Carpet, ! Name
  ,                                       ! Surface Rendering Name
  {e165c2d4-6545-491b-9e1c-427c9d4cd252}; ! Layer 1

OS:Material,
  {e165c2d4-6545-491b-9e1c-427c9d4cd252}, ! Handle
  MAT-CC05 4 HW CONCRETE,                 ! Name
  Rough,                                  ! Roughness
  0.1016,                                 ! Thickness {m}
  1.311,                                  ! Conductivity {W/m-K}
  2240,                                   ! Density {kg/m3}
  836.8,                                  ! Specific Heat {J/kg-K}
  0.9,                                    ! Thermal Absorptance
  0.7,                                    ! Solar Absorptance
  0.7;                                    ! Visible Absorptance

OS:ComponentCost:LineItem,
  {d0084656-8bb8-47f5-96d4-6a946d26f288}, ! Handle
  90.1-2004 Nonres 6B Ext Slab Unheated - 4in Slab without Carpet, ! Name
  ,                                       ! Type
  Construction,                           ! Line Item Type
  90.1-2004 Nonres 6B Ext Slab Unheated - 4in Slab without Carpet, ! Item Name
  ,                                       ! Object End Use Key
  ,                                       ! Quantity {dimensionless}
  45.52,                                  ! Material Cost {$}
  CostPerArea;                            ! Material Cost Units

