
OS:Version,
  {dc06c430-9dc2-4321-a840-297de71d0747}, ! Handle
  0.9.3;                                  ! Version Identifier

OS:Construction,
  {fc5bfc4f-f124-4adb-bb57-22a98781a6b9}, ! Handle
  90.1 Windows Window Fixed 2132 Mtl-Grn-Std-ClrSpe, ! Name
  ,                                       ! Surface Rendering Name
  {7d1dace5-1426-4a48-b852-df8fd8f679c3}; ! Layer 1

OS:WindowMaterial:Glazing,
  {7d1dace5-1426-4a48-b852-df8fd8f679c3}, ! Handle
  Theoretical Glass [332],                ! Name
  SpectralAverage,                        ! Optical Data Type
  ,                                       ! Window Glass Spectral Data Set Name
  0.003,                                  ! Thickness {m}
  0.42221,                                ! Solar Transmittance at Normal Incidence
  0.52779,                                ! Front Side Solar Reflectance at Normal Incidence
  0.52779,                                ! Back Side Solar Reflectance at Normal Incidence
  0.549983,                               ! Visible Transmittance at Normal Incidence
  0.400017,                               ! Front Side Visible Reflectance at Normal Incidence
  0.400017,                               ! Back Side Visible Reflectance at Normal Incidence
  0,                                      ! Infrared Transmittance at Normal Incidence
  0.9,                                    ! Front Side Infrared Hemispherical Emissivity
  0.9,                                    ! Back Side Infrared Hemispherical Emissivity
  0.0213046;                              ! Conductivity {W/m-K}

OS:ComponentCost:LineItem,
  {967552a0-bb9d-46b9-9f05-36aadbaf68bb}, ! Handle
  90.1 Windows Window Fixed 2132 Mtl-Grn-Std-ClrSpe, ! Name
  ,                                       ! Type
  Construction,                           ! Line Item Type
  90.1 Windows Window Fixed 2132 Mtl-Grn-Std-ClrSpe, ! Item Name
  ,                                       ! Object End Use Key
  ,                                       ! Quantity {dimensionless}
  0,                                      ! Material Cost {$}
  CostPerArea;                            ! Material Cost Units

OS:ComponentData,
  {da516178-e0b3-43ce-98ac-623e44907b2d}, ! Handle
  Component Data 1,                       ! Name
  {3c061329-3941-435d-acd9-6cc00a8f97ca}, ! UUID
  {90807c8e-00e0-423b-91a2-304724f49c72}, ! Version UUID
  1363981008,                             ! Creation Timestamp
  1363981008,                             ! Version Timestamp
  {fc5bfc4f-f124-4adb-bb57-22a98781a6b9}, ! Name of Object 1
  {7d1dace5-1426-4a48-b852-df8fd8f679c3}, ! Name of Object 2
  {967552a0-bb9d-46b9-9f05-36aadbaf68bb}; ! Name of Object 3

