
OS:Version,
  {3e736513-10d3-4d82-b83d-179d82d7d5c3}, ! Handle
  0.9.3;                                  ! Version Identifier

OS:Construction,
  {609f6fa5-fa04-4c7b-bcd4-cbea60cf3f17}, ! Handle
  90.1-1999 Res B19 Skylight without Curb, ! Name
  ,                                       ! Surface Rendering Name
  {039d7c80-6483-4064-a910-0f6033bbd573}; ! Layer 1

OS:WindowMaterial:Glazing,
  {039d7c80-6483-4064-a910-0f6033bbd573}, ! Handle
  Theoretical Glass [100],                ! Name
  SpectralAverage,                        ! Optical Data Type
  ,                                       ! Window Glass Spectral Data Set Name
  0.003,                                  ! Thickness {m}
  0.471791,                               ! Solar Transmittance at Normal Incidence
  0.478209,                               ! Front Side Solar Reflectance at Normal Incidence
  0.478209,                               ! Back Side Solar Reflectance at Normal Incidence
  0.489393,                               ! Visible Transmittance at Normal Incidence
  0.460607,                               ! Front Side Visible Reflectance at Normal Incidence
  0.460607,                               ! Back Side Visible Reflectance at Normal Incidence
  0,                                      ! Infrared Transmittance at Normal Incidence
  0.9,                                    ! Front Side Infrared Hemispherical Emissivity
  0.9,                                    ! Back Side Infrared Hemispherical Emissivity
  0.0214499;                              ! Conductivity {W/m-K}

OS:ComponentCost:LineItem,
  {94aec417-0be0-4a8b-ad21-4bafb801b983}, ! Handle
  90.1-1999 Res B19 Skylight without Curb, ! Name
  ,                                       ! Type
  Construction,                           ! Line Item Type
  90.1-1999 Res B19 Skylight without Curb, ! Item Name
  ,                                       ! Object End Use Key
  ,                                       ! Quantity {dimensionless}
  549.465,                                ! Material Cost {$}
  CostPerArea;                            ! Material Cost Units

