
OS:Version,
  {f1ab8f58-173c-4983-9a30-368cc4c51175}, ! Handle
  0.9.3;                                  ! Version Identifier

OS:Material,
  {1d1d4c0c-b048-491c-8e5a-e1d6dce52c09}, ! Handle
  Wall Insulation,                        ! Name
  MediumRough,                            ! Roughness
  0.0598725,                              ! Thickness {m}
  0.045,                                  ! Conductivity {W/m-K}
  265,                                    ! Density {kg/m3}
  836.8,                                  ! Specific Heat {J/kg-K}
  0.9,                                    ! Thermal Absorptance
  0.7,                                    ! Solar Absorptance
  0.7;                                    ! Visible Absorptance

OS:Construction,
  {1d7d6c99-d59b-4497-94e7-efe4df156469}, ! Handle
  90.1-2007 Res 2A Ext Wall Metal Building, ! Name
  ,                                       ! Surface Rendering Name
  {dfd703ae-ae74-4afc-ab0a-0f8c24cdaf08}, ! Layer 1
  {1d1d4c0c-b048-491c-8e5a-e1d6dce52c09}, ! Layer 2
  {eef81d86-08a4-413b-b978-b35c2ae7dc63}; ! Layer 3

OS:Material,
  {dfd703ae-ae74-4afc-ab0a-0f8c24cdaf08}, ! Handle
  Metal Siding,                           ! Name
  Smooth,                                 ! Roughness
  0.0015,                                 ! Thickness {m}
  44.96,                                  ! Conductivity {W/m-K}
  7688.86,                                ! Density {kg/m3}
  410,                                    ! Specific Heat {J/kg-K}
  0.9,                                    ! Thermal Absorptance
  0.2,                                    ! Solar Absorptance
  0.2;                                    ! Visible Absorptance

OS:Material,
  {eef81d86-08a4-413b-b978-b35c2ae7dc63}, ! Handle
  1/2IN Gypsum,                           ! Name
  Smooth,                                 ! Roughness
  0.01271,                                ! Thickness {m}
  0.16,                                   ! Conductivity {W/m-K}
  784.9,                                  ! Density {kg/m3}
  830,                                    ! Specific Heat {J/kg-K}
  0.9,                                    ! Thermal Absorptance
  0.92,                                   ! Solar Absorptance
  0.92;                                   ! Visible Absorptance

OS:ComponentCost:LineItem,
  {d7499913-2b60-4c21-ba13-e4949677c813}, ! Handle
  90.1-2007 Res 2A Ext Wall Metal Building, ! Name
  ,                                       ! Type
  Construction,                           ! Line Item Type
  90.1-2007 Res 2A Ext Wall Metal Building, ! Item Name
  ,                                       ! Object End Use Key
  ,                                       ! Quantity {dimensionless}
  98.78,                                  ! Material Cost {$}
  CostPerArea;                            ! Material Cost Units

