
OS:Version,
  {ff996983-d379-4a36-9172-e9718cf3bebe}, ! Handle
  0.9.3;                                  ! Version Identifier

OS:Construction,
  {4c889454-1e1a-4382-bdaa-f3a9e7ef4602}, ! Handle
  90.1-2007 Nonres 5B Ext Wall Steel-Framed, ! Name
  ,                                       ! Surface Rendering Name
  {ef11601b-970d-48b4-b5a1-1cc8ec0751df}, ! Layer 1
  {d7329311-3c27-417d-ba9f-7bed5cd5fb8a}, ! Layer 2
  {4af87e57-f2dc-4b54-9daf-7e4442b5ecc3}; ! Layer 3

OS:Material:NoMass,
  {ef11601b-970d-48b4-b5a1-1cc8ec0751df}, ! Handle
  MAT-SHEATH,                             ! Name
  Rough,                                  ! Roughness
  0.36256,                                ! Thermal Resistance {m2-K/W}
  0.9,                                    ! Thermal Absorptance
  0.7,                                    ! Solar Absorptance
  0.7;                                    ! Visible Absorptance

OS:Material,
  {d7329311-3c27-417d-ba9f-7bed5cd5fb8a}, ! Handle
  Wall Insulation [10],                   ! Name
  MediumRough,                            ! Roughness
  0.0971136,                              ! Thickness {m}
  0.045,                                  ! Conductivity {W/m-K}
  265,                                    ! Density {kg/m3}
  836.8,                                  ! Specific Heat {J/kg-K}
  0.9,                                    ! Thermal Absorptance
  0.7,                                    ! Solar Absorptance
  0.7;                                    ! Visible Absorptance

OS:Material,
  {4af87e57-f2dc-4b54-9daf-7e4442b5ecc3}, ! Handle
  1/2IN Gypsum,                           ! Name
  Smooth,                                 ! Roughness
  0.01271,                                ! Thickness {m}
  0.16,                                   ! Conductivity {W/m-K}
  784.9,                                  ! Density {kg/m3}
  830,                                    ! Specific Heat {J/kg-K}
  0.9,                                    ! Thermal Absorptance
  0.92,                                   ! Solar Absorptance
  0.92;                                   ! Visible Absorptance

OS:ComponentCost:LineItem,
  {903e7de0-779b-4417-9f49-6d749af059fa}, ! Handle
  90.1-2007 Nonres 5B Ext Wall Steel-Framed, ! Name
  ,                                       ! Type
  Construction,                           ! Line Item Type
  90.1-2007 Nonres 5B Ext Wall Steel-Framed, ! Item Name
  ,                                       ! Object End Use Key
  ,                                       ! Quantity {dimensionless}
  94.657,                                 ! Material Cost {$}
  CostPerArea;                            ! Material Cost Units

OS:ComponentData,
  {18771ad2-74f9-4b9c-bbfc-21b4a7fa54a0}, ! Handle
  Component Data 1,                       ! Name
  {6101b39c-07fc-46a4-9b97-4788f0218f23}, ! UUID
  {8289a081-cbdc-4fe4-a4f3-4c6be2957b59}, ! Version UUID
  1363981808,                             ! Creation Timestamp
  1363981808,                             ! Version Timestamp
  {4c889454-1e1a-4382-bdaa-f3a9e7ef4602}, ! Name of Object 1
  {ef11601b-970d-48b4-b5a1-1cc8ec0751df}, ! Name of Object 2
  {d7329311-3c27-417d-ba9f-7bed5cd5fb8a}, ! Name of Object 3
  {4af87e57-f2dc-4b54-9daf-7e4442b5ecc3}, ! Name of Object 4
  {903e7de0-779b-4417-9f49-6d749af059fa}; ! Name of Object 5

