
OS:Version,
  {5ab0b5e2-641e-4908-bd97-94d24a497c47}, ! Handle
  0.9.3;                                  ! Version Identifier

OS:Material:NoMass,
  {5ff445f8-cc4d-41e7-a8df-81abe776d6c6}, ! Handle
  MAT-SHEATH,                             ! Name
  Rough,                                  ! Roughness
  0.36256,                                ! Thermal Resistance {m2-K/W}
  0.9,                                    ! Thermal Absorptance
  0.7,                                    ! Solar Absorptance
  0.7;                                    ! Visible Absorptance

OS:Construction,
  {ef3fdf08-1424-4604-8cfc-7176db8b97ab}, ! Handle
  90.1-2007 Nonres 5B Ext Wall Steel-Framed, ! Name
  ,                                       ! Surface Rendering Name
  {5ff445f8-cc4d-41e7-a8df-81abe776d6c6}, ! Layer 1
  {f8e2aecf-b0b5-4d76-a3d4-f44887ea4f00}, ! Layer 2
  {e02ef24e-a172-4c35-9fba-d92f08b97ef3}; ! Layer 3

OS:Material,
  {f8e2aecf-b0b5-4d76-a3d4-f44887ea4f00}, ! Handle
  Wall Insulation [10],                   ! Name
  MediumRough,                            ! Roughness
  0.0971136,                              ! Thickness {m}
  0.045,                                  ! Conductivity {W/m-K}
  265,                                    ! Density {kg/m3}
  836.8,                                  ! Specific Heat {J/kg-K}
  0.9,                                    ! Thermal Absorptance
  0.7,                                    ! Solar Absorptance
  0.7;                                    ! Visible Absorptance

OS:Material,
  {e02ef24e-a172-4c35-9fba-d92f08b97ef3}, ! Handle
  1/2IN Gypsum,                           ! Name
  Smooth,                                 ! Roughness
  0.01271,                                ! Thickness {m}
  0.16,                                   ! Conductivity {W/m-K}
  784.9,                                  ! Density {kg/m3}
  830,                                    ! Specific Heat {J/kg-K}
  0.9,                                    ! Thermal Absorptance
  0.92,                                   ! Solar Absorptance
  0.92;                                   ! Visible Absorptance

OS:ComponentCost:LineItem,
  {7835d903-6e9e-45f4-a50b-e5135f995774}, ! Handle
  90.1-2007 Nonres 5B Ext Wall Steel-Framed, ! Name
  ,                                       ! Type
  Construction,                           ! Line Item Type
  90.1-2007 Nonres 5B Ext Wall Steel-Framed, ! Item Name
  ,                                       ! Object End Use Key
  ,                                       ! Quantity {dimensionless}
  94.657,                                 ! Material Cost {$}
  CostPerArea;                            ! Material Cost Units

