
OS:Version,
  {c1840c14-5d67-4f56-bda1-da16115a21a5}, ! Handle
  0.9.3;                                  ! Version Identifier

OS:Material,
  {8a38c09a-1053-4e6a-bb08-747ca92653cd}, ! Handle
  1/2IN Gypsum,                           ! Name
  Smooth,                                 ! Roughness
  0.01271,                                ! Thickness {m}
  0.16,                                   ! Conductivity {W/m-K}
  784.9,                                  ! Density {kg/m3}
  830,                                    ! Specific Heat {J/kg-K}
  0.9,                                    ! Thermal Absorptance
  0.92,                                   ! Solar Absorptance
  0.92;                                   ! Visible Absorptance

OS:ComponentCost:LineItem,
  {628657ad-350a-4666-bfde-2478e3f1daa3}, ! Handle
  90.1-2004 Nonres 6B Ext Wall Wood-Framed and Other, ! Name
  ,                                       ! Type
  Construction,                           ! Line Item Type
  90.1-2004 Nonres 6B Ext Wall Wood-Framed and Other, ! Item Name
  ,                                       ! Object End Use Key
  ,                                       ! Quantity {dimensionless}
  73.056,                                 ! Material Cost {$}
  CostPerArea;                            ! Material Cost Units

OS:Construction,
  {808796c7-f311-4ce2-b15c-aa16e0bc7f21}, ! Handle
  90.1-2004 Nonres 6B Ext Wall Wood-Framed and Other, ! Name
  ,                                       ! Surface Rendering Name
  {31f682aa-8c67-4ab5-a9ad-c0d6eca49de1}, ! Layer 1
  {2b2acfb3-9902-48f0-8d8f-ab805218c94d}, ! Layer 2
  {8a38c09a-1053-4e6a-bb08-747ca92653cd}; ! Layer 3

OS:Material,
  {31f682aa-8c67-4ab5-a9ad-c0d6eca49de1}, ! Handle
  Wood Siding,                            ! Name
  MediumSmooth,                           ! Roughness
  0.01,                                   ! Thickness {m}
  0.11,                                   ! Conductivity {W/m-K}
  544.62,                                 ! Density {kg/m3}
  1210,                                   ! Specific Heat {J/kg-K}
  0.9,                                    ! Thermal Absorptance
  0.78,                                   ! Solar Absorptance
  0.78;                                   ! Visible Absorptance

OS:Material,
  {2b2acfb3-9902-48f0-8d8f-ab805218c94d}, ! Handle
  Wall Insulation [2],                    ! Name
  MediumRough,                            ! Roughness
  0.0746874,                              ! Thickness {m}
  0.045,                                  ! Conductivity {W/m-K}
  265,                                    ! Density {kg/m3}
  836.8,                                  ! Specific Heat {J/kg-K}
  0.9,                                    ! Thermal Absorptance
  0.7,                                    ! Solar Absorptance
  0.7;                                    ! Visible Absorptance

