
OS:Version,
  {6035c6f9-16a6-4348-a6af-321dcbe1aff7}, ! Handle
  0.9.3;                                  ! Version Identifier

OS:Construction,
  {7fbaedd2-935a-4192-9b5a-5aab239e28a6}, ! Handle
  90.1-2004 Nonres 6B Ext Wall Wood-Framed and Other, ! Name
  ,                                       ! Surface Rendering Name
  {7b968104-d68c-4095-b456-1efe014af419}, ! Layer 1
  {4afbc9c9-935f-4e62-83ac-14909bc61bf6}, ! Layer 2
  {eb2b0d1c-9db5-48c1-9695-47e7d96b4c24}; ! Layer 3

OS:Material,
  {7b968104-d68c-4095-b456-1efe014af419}, ! Handle
  Wood Siding,                            ! Name
  MediumSmooth,                           ! Roughness
  0.01,                                   ! Thickness {m}
  0.11,                                   ! Conductivity {W/m-K}
  544.62,                                 ! Density {kg/m3}
  1210,                                   ! Specific Heat {J/kg-K}
  0.9,                                    ! Thermal Absorptance
  0.78,                                   ! Solar Absorptance
  0.78;                                   ! Visible Absorptance

OS:Material,
  {4afbc9c9-935f-4e62-83ac-14909bc61bf6}, ! Handle
  Wall Insulation [2],                    ! Name
  MediumRough,                            ! Roughness
  0.0746874,                              ! Thickness {m}
  0.045,                                  ! Conductivity {W/m-K}
  265,                                    ! Density {kg/m3}
  836.8,                                  ! Specific Heat {J/kg-K}
  0.9,                                    ! Thermal Absorptance
  0.7,                                    ! Solar Absorptance
  0.7;                                    ! Visible Absorptance

OS:Material,
  {eb2b0d1c-9db5-48c1-9695-47e7d96b4c24}, ! Handle
  1/2IN Gypsum,                           ! Name
  Smooth,                                 ! Roughness
  0.01271,                                ! Thickness {m}
  0.16,                                   ! Conductivity {W/m-K}
  784.9,                                  ! Density {kg/m3}
  830,                                    ! Specific Heat {J/kg-K}
  0.9,                                    ! Thermal Absorptance
  0.92,                                   ! Solar Absorptance
  0.92;                                   ! Visible Absorptance

OS:ComponentCost:LineItem,
  {935c80c1-17b0-4612-8bae-dcb920801a6c}, ! Handle
  90.1-2004 Nonres 6B Ext Wall Wood-Framed and Other, ! Name
  ,                                       ! Type
  Construction,                           ! Line Item Type
  90.1-2004 Nonres 6B Ext Wall Wood-Framed and Other, ! Item Name
  ,                                       ! Object End Use Key
  ,                                       ! Quantity {dimensionless}
  73.056,                                 ! Material Cost {$}
  CostPerArea;                            ! Material Cost Units

OS:ComponentData,
  {b754ede0-7f7f-420c-bdbc-461c4bea8628}, ! Handle
  Component Data 1,                       ! Name
  {e181543e-9d89-4c62-9b11-cc60293ec56b}, ! UUID
  {6dc03a4e-95c1-4148-8d18-bfb5d941100e}, ! Version UUID
  1363981685,                             ! Creation Timestamp
  1363981685,                             ! Version Timestamp
  {7fbaedd2-935a-4192-9b5a-5aab239e28a6}, ! Name of Object 1
  {7b968104-d68c-4095-b456-1efe014af419}, ! Name of Object 2
  {4afbc9c9-935f-4e62-83ac-14909bc61bf6}, ! Name of Object 3
  {eb2b0d1c-9db5-48c1-9695-47e7d96b4c24}, ! Name of Object 4
  {935c80c1-17b0-4612-8bae-dcb920801a6c}; ! Name of Object 5

