
OS:Version,
  {111fd3aa-0aa1-4d6e-9d2a-defb51c3f8f1}, ! Handle
  0.9.3;                                  ! Version Identifier

OS:ComponentCost:LineItem,
  {85cabe45-1e72-47c6-ad21-f2e1bba15e20}, ! Handle
  AEDG-SmOffice 6B Door Non-Swinging,     ! Name
  ,                                       ! Type
  Construction,                           ! Line Item Type
  AEDG-SmOffice 6B Door Non-Swinging,     ! Item Name
  ,                                       ! Object End Use Key
  ,                                       ! Quantity {dimensionless}
  0,                                      ! Material Cost {$}
  CostPerArea;                            ! Material Cost Units

OS:Construction,
  {fef94c4b-5ae2-4d83-9491-2a9bb7ba89c5}, ! Handle
  AEDG-SmOffice 6B Door Non-Swinging,     ! Name
  ,                                       ! Surface Rendering Name
  {214f19a7-72d0-4b1a-b80c-4464ff0503b9}; ! Layer 1

OS:Material:NoMass,
  {214f19a7-72d0-4b1a-b80c-4464ff0503b9}, ! Handle
  DoorMaterial [2],                       ! Name
  MediumRough,                            ! Roughness
  0.352225,                               ! Thermal Resistance {m2-K/W}
  0.9,                                    ! Thermal Absorptance
  0.7,                                    ! Solar Absorptance
  0.7;                                    ! Visible Absorptance

