
! 
OS:Version,
  {9c37d538-db0d-4a47-9850-5bede7e76bd5}, !- Handle
  1.13.0;                                 !- Version Identifier


! {"nombreProductoCorto": "CLIMALIT PLUS con COOL LITE ST 136 F2 6 (16 argon90%) 44.2", "codigoEAN": "", "handle": "ac853172-6e1d-4a9c-98c5-0dfd22c18f59", "g": 0.34, "tV": 0.33, "u": 2.5, "nombreProducto": "CLIMALIT PLUS con COOL LITE ST 136 F2 6 (16 argon90%) 44.2\nU:2.5 W/m2K - g:0.34 - Tv: 0.33"}
OS:WindowMaterial:SimpleGlazingSystem,
  {ac853172-6e1d-4a9c-98c5-0dfd22c18f59}, !- Handle
  CLIMALIT PLUS con COOL LITE ST 136 F2 6 (16 argon90%) 44.2, !- Name
  2.5,                                    !- U-Factor {W/m2-K}
  0.34,                                    !- Solar Heat Gain Coefficient
  0.33;                                    !- Visible Transmittance     
  
  
OS:Construction,
  {a64964e7-9ae7-42a0-9011-294de6aabfca}, !- Handle
  CLIMALIT PLUS con COOL LITE ST 136 F2 6 (16 argon90%) 44.2,                         !- Name
  ,                                       !- Surface Rendering Name
  {ac853172-6e1d-4a9c-98c5-0dfd22c18f59}; !- Layer 1  

