
OS:Version,
  {07f548d1-538f-4f8d-8801-6f0947dd706d}, ! Handle
  0.9.3;                                  ! Version Identifier

OS:Construction,
  {c670213c-94f2-42a0-af68-13a0bd9a94ea}, ! Handle
  189.1-2009 Nonres 7A Ext Wall Wood-Framed and Other, ! Name
  ,                                       ! Surface Rendering Name
  {b1551957-5f2d-4cce-95ac-bd865ab472dc}, ! Layer 1
  {413b65ae-1bba-4d7c-bae6-44917b931acd}, ! Layer 2
  {98f739d8-9f31-44c7-83af-6b7dfb796d8b}; ! Layer 3

OS:Material,
  {b1551957-5f2d-4cce-95ac-bd865ab472dc}, ! Handle
  Wood Siding,                            ! Name
  MediumSmooth,                           ! Roughness
  0.01,                                   ! Thickness {m}
  0.11,                                   ! Conductivity {W/m-K}
  544.62,                                 ! Density {kg/m3}
  1210,                                   ! Specific Heat {J/kg-K}
  0.9,                                    ! Thermal Absorptance
  0.78,                                   ! Solar Absorptance
  0.78;                                   ! Visible Absorptance

OS:Material,
  {413b65ae-1bba-4d7c-bae6-44917b931acd}, ! Handle
  Wall Insulation [43],                   ! Name
  MediumRough,                            ! Roughness
  0.15833,                                ! Thickness {m}
  0.045,                                  ! Conductivity {W/m-K}
  265,                                    ! Density {kg/m3}
  836.8,                                  ! Specific Heat {J/kg-K}
  0.9,                                    ! Thermal Absorptance
  0.7,                                    ! Solar Absorptance
  0.7;                                    ! Visible Absorptance

OS:Material,
  {98f739d8-9f31-44c7-83af-6b7dfb796d8b}, ! Handle
  1/2IN Gypsum,                           ! Name
  Smooth,                                 ! Roughness
  0.01271,                                ! Thickness {m}
  0.16,                                   ! Conductivity {W/m-K}
  784.9,                                  ! Density {kg/m3}
  830,                                    ! Specific Heat {J/kg-K}
  0.9,                                    ! Thermal Absorptance
  0.92,                                   ! Solar Absorptance
  0.92;                                   ! Visible Absorptance

OS:ComponentCost:LineItem,
  {6a850bc4-544d-4744-997c-e8fbb7905468}, ! Handle
  189.1-2009 Nonres 7A Ext Wall Wood-Framed and Other, ! Name
  ,                                       ! Type
  Construction,                           ! Line Item Type
  189.1-2009 Nonres 7A Ext Wall Wood-Framed and Other, ! Item Name
  ,                                       ! Object End Use Key
  ,                                       ! Quantity {dimensionless}
  82.923,                                 ! Material Cost {$}
  CostPerArea;                            ! Material Cost Units

OS:ComponentData,
  {2a035eec-57bf-409d-9ac3-39a7eb565959}, ! Handle
  Component Data 1,                       ! Name
  {c33f85e6-0ce5-46a2-8959-0ecf9e965122}, ! UUID
  {3901a65e-af2f-42cd-bbc0-25844075c514}, ! Version UUID
  1363980951,                             ! Creation Timestamp
  1363980951,                             ! Version Timestamp
  {c670213c-94f2-42a0-af68-13a0bd9a94ea}, ! Name of Object 1
  {b1551957-5f2d-4cce-95ac-bd865ab472dc}, ! Name of Object 2
  {413b65ae-1bba-4d7c-bae6-44917b931acd}, ! Name of Object 3
  {98f739d8-9f31-44c7-83af-6b7dfb796d8b}, ! Name of Object 4
  {6a850bc4-544d-4744-997c-e8fbb7905468}; ! Name of Object 5

