
OS:Version,
  {7f275d5c-a485-440b-900e-d91313ecc9f0}, ! Handle
  0.9.3;                                  ! Version Identifier

OS:Construction,
  {92565501-9598-4195-9876-33096fb812b7}, ! Handle
  90.1-2007 Nonres 7A Window Metal framing entrance door, ! Name
  ,                                       ! Surface Rendering Name
  {3c001153-76b7-473b-8a62-e6487bbe9c09}; ! Layer 1

OS:WindowMaterial:Glazing,
  {3c001153-76b7-473b-8a62-e6487bbe9c09}, ! Handle
  Theoretical Glass [190],                ! Name
  SpectralAverage,                        ! Optical Data Type
  ,                                       ! Window Glass Spectral Data Set Name
  0.003,                                  ! Thickness {m}
  0.440193,                               ! Solar Transmittance at Normal Incidence
  0.509807,                               ! Front Side Solar Reflectance at Normal Incidence
  0.509807,                               ! Back Side Solar Reflectance at Normal Incidence
  0.450308,                               ! Visible Transmittance at Normal Incidence
  0.499692,                               ! Front Side Visible Reflectance at Normal Incidence
  0.499692,                               ! Back Side Visible Reflectance at Normal Incidence
  0,                                      ! Infrared Transmittance at Normal Incidence
  0.9,                                    ! Front Side Infrared Hemispherical Emissivity
  0.9,                                    ! Back Side Infrared Hemispherical Emissivity
  0.0457755;                              ! Conductivity {W/m-K}

OS:ComponentCost:LineItem,
  {654051ae-158e-4f18-91be-4e0c59f8abd6}, ! Handle
  90.1-2007 Nonres 7A Window Metal framing entrance door, ! Name
  ,                                       ! Type
  Construction,                           ! Line Item Type
  90.1-2007 Nonres 7A Window Metal framing entrance door, ! Item Name
  ,                                       ! Object End Use Key
  ,                                       ! Quantity {dimensionless}
  508.362,                                ! Material Cost {$}
  CostPerArea;                            ! Material Cost Units

OS:ComponentData,
  {64a0b738-43da-4582-a0bd-899e6171fab2}, ! Handle
  Component Data 1,                       ! Name
  {513b35fb-51a1-45ce-b044-e78c8b99c0d0}, ! UUID
  {18b3a8e0-0edd-4353-80a5-af54d376910e}, ! Version UUID
  1363981823,                             ! Creation Timestamp
  1363981823,                             ! Version Timestamp
  {92565501-9598-4195-9876-33096fb812b7}, ! Name of Object 1
  {3c001153-76b7-473b-8a62-e6487bbe9c09}, ! Name of Object 2
  {654051ae-158e-4f18-91be-4e0c59f8abd6}; ! Name of Object 3

