
OS:Version,
  {d3b61236-0d14-4a2c-a6d4-3b91af90a823}, ! Handle
  0.9.3;                                  ! Version Identifier

OS:ComponentCost:LineItem,
  {6bcabdbe-848c-4369-8974-2684eb08873f}, ! Handle
  90.1-2007 Nonres 7A Window Metal framing entrance door, ! Name
  ,                                       ! Type
  Construction,                           ! Line Item Type
  90.1-2007 Nonres 7A Window Metal framing entrance door, ! Item Name
  ,                                       ! Object End Use Key
  ,                                       ! Quantity {dimensionless}
  508.362,                                ! Material Cost {$}
  CostPerArea;                            ! Material Cost Units

OS:WindowMaterial:Glazing,
  {cebd4de9-d093-436f-802f-2d7cef875a12}, ! Handle
  Theoretical Glass [190],                ! Name
  SpectralAverage,                        ! Optical Data Type
  ,                                       ! Window Glass Spectral Data Set Name
  0.003,                                  ! Thickness {m}
  0.440193,                               ! Solar Transmittance at Normal Incidence
  0.509807,                               ! Front Side Solar Reflectance at Normal Incidence
  0.509807,                               ! Back Side Solar Reflectance at Normal Incidence
  0.450308,                               ! Visible Transmittance at Normal Incidence
  0.499692,                               ! Front Side Visible Reflectance at Normal Incidence
  0.499692,                               ! Back Side Visible Reflectance at Normal Incidence
  0,                                      ! Infrared Transmittance at Normal Incidence
  0.9,                                    ! Front Side Infrared Hemispherical Emissivity
  0.9,                                    ! Back Side Infrared Hemispherical Emissivity
  0.0457755;                              ! Conductivity {W/m-K}

OS:Construction,
  {3c072717-f66a-4596-902e-cf52aadc3a96}, ! Handle
  90.1-2007 Nonres 7A Window Metal framing entrance door, ! Name
  ,                                       ! Surface Rendering Name
  {cebd4de9-d093-436f-802f-2d7cef875a12}; ! Layer 1

