
OS:Version,
  {79ff7239-2947-4bfc-a282-e94f4ae6543f}, ! Handle
  0.9.3;                                  ! Version Identifier

OS:Construction,
  {2aafd4f4-0eb6-4466-86f0-8d079e9b4eb3}, ! Handle
  90.1-2001 Nonres B12 Ext Slab Unheated - 4in Slab without Carpet, ! Name
  ,                                       ! Surface Rendering Name
  {1fa4934d-f391-4b18-9571-98846502fa82}; ! Layer 1

OS:Material,
  {1fa4934d-f391-4b18-9571-98846502fa82}, ! Handle
  MAT-CC05 4 HW CONCRETE,                 ! Name
  Rough,                                  ! Roughness
  0.1016,                                 ! Thickness {m}
  1.311,                                  ! Conductivity {W/m-K}
  2240,                                   ! Density {kg/m3}
  836.8,                                  ! Specific Heat {J/kg-K}
  0.9,                                    ! Thermal Absorptance
  0.7,                                    ! Solar Absorptance
  0.7;                                    ! Visible Absorptance

OS:ComponentCost:LineItem,
  {1e73fdf2-b55d-4a44-9155-fe08f60ba6b7}, ! Handle
  90.1-2001 Nonres B12 Ext Slab Unheated - 4in Slab without Carpet, ! Name
  ,                                       ! Type
  Construction,                           ! Line Item Type
  90.1-2001 Nonres B12 Ext Slab Unheated - 4in Slab without Carpet, ! Item Name
  ,                                       ! Object End Use Key
  ,                                       ! Quantity {dimensionless}
  45.52,                                  ! Material Cost {$}
  CostPerArea;                            ! Material Cost Units

OS:ComponentData,
  {84651ef2-f886-4cde-9699-36553965c163}, ! Handle
  Component Data 1,                       ! Name
  {64ef56b1-e73c-43ef-ba08-b366cfae71bf}, ! UUID
  {9691ff70-f735-4a75-bc9c-d465a042e14a}, ! Version UUID
  1363981352,                             ! Creation Timestamp
  1363981352,                             ! Version Timestamp
  {2aafd4f4-0eb6-4466-86f0-8d079e9b4eb3}, ! Name of Object 1
  {1fa4934d-f391-4b18-9571-98846502fa82}, ! Name of Object 2
  {1e73fdf2-b55d-4a44-9155-fe08f60ba6b7}; ! Name of Object 3

