
OS:Version,
  {98cd9801-0f6b-4a57-a1ee-58197ebd3f10}, ! Handle
  0.9.3;                                  ! Version Identifier

OS:Material,
  {b9e2ed34-11f1-4754-b7c1-455702e19e8e}, ! Handle
  MAT-CC05 4 HW CONCRETE,                 ! Name
  Rough,                                  ! Roughness
  0.1016,                                 ! Thickness {m}
  1.311,                                  ! Conductivity {W/m-K}
  2240,                                   ! Density {kg/m3}
  836.8,                                  ! Specific Heat {J/kg-K}
  0.9,                                    ! Thermal Absorptance
  0.7,                                    ! Solar Absorptance
  0.7;                                    ! Visible Absorptance

OS:Construction,
  {647f28c2-0287-4ff6-afd8-3cb48427dd28}, ! Handle
  90.1-2001 Nonres B12 Ext Slab Unheated - 4in Slab without Carpet, ! Name
  ,                                       ! Surface Rendering Name
  {b9e2ed34-11f1-4754-b7c1-455702e19e8e}; ! Layer 1

OS:ComponentCost:LineItem,
  {4467d29f-16cd-4629-ad46-e66b20ca63de}, ! Handle
  90.1-2001 Nonres B12 Ext Slab Unheated - 4in Slab without Carpet, ! Name
  ,                                       ! Type
  Construction,                           ! Line Item Type
  90.1-2001 Nonres B12 Ext Slab Unheated - 4in Slab without Carpet, ! Item Name
  ,                                       ! Object End Use Key
  ,                                       ! Quantity {dimensionless}
  45.52,                                  ! Material Cost {$}
  CostPerArea;                            ! Material Cost Units

