
OS:Version,
  {c02d7faf-1abb-4863-9691-951596a855c1}, ! Handle
  0.9.3;                                  ! Version Identifier

OS:Material:NoMass,
  {8b60ddfa-8a06-4244-b088-723ff9b2f517}, ! Handle
  CP02 CARPET PAD,                        ! Name
  VeryRough,                              ! Roughness
  0.21648,                                ! Thermal Resistance {m2-K/W}
  0.9,                                    ! Thermal Absorptance
  0.7,                                    ! Solar Absorptance
  0.8;                                    ! Visible Absorptance

OS:Construction,
  {c05be8d3-5b4a-4078-8653-523ef8df73e9}, ! Handle
  90.1-1999 Res B9 Ext Slab Unheated - 8in Slab with Carpet, ! Name
  ,                                       ! Surface Rendering Name
  {ba90f7d6-d05e-4b15-80a9-41b6efb048a7}, ! Layer 1
  {8b60ddfa-8a06-4244-b088-723ff9b2f517}; ! Layer 2

OS:Material,
  {ba90f7d6-d05e-4b15-80a9-41b6efb048a7}, ! Handle
  MAT-CC05 8 HW CONCRETE,                 ! Name
  Rough,                                  ! Roughness
  0.20321,                                ! Thickness {m}
  1.311,                                  ! Conductivity {W/m-K}
  2240,                                   ! Density {kg/m3}
  836.8,                                  ! Specific Heat {J/kg-K}
  0.9,                                    ! Thermal Absorptance
  0.7,                                    ! Solar Absorptance
  0.7;                                    ! Visible Absorptance

OS:ComponentCost:LineItem,
  {6b01eabd-c81b-402a-921a-a2b4f44e1a5f}, ! Handle
  90.1-1999 Res B9 Ext Slab Unheated - 8in Slab with Carpet, ! Name
  ,                                       ! Type
  Construction,                           ! Line Item Type
  90.1-1999 Res B9 Ext Slab Unheated - 8in Slab with Carpet, ! Item Name
  ,                                       ! Object End Use Key
  ,                                       ! Quantity {dimensionless}
  45.52,                                  ! Material Cost {$}
  CostPerArea;                            ! Material Cost Units

