
OS:Version,
  {b4ba5291-b675-4bd0-a461-7b7dda656924}, ! Handle
  0.9.3;                                  ! Version Identifier

OS:Construction,
  {9236be8c-bc69-4ee7-afe8-98144a8835de}, ! Handle
  90.1-2001 Nonres B22 Ext Wall Mass,     ! Name
  ,                                       ! Surface Rendering Name
  {7dfb25aa-3ca4-42b7-9312-40c1a77b0479}, ! Layer 1
  {dbaf4b89-2889-4e4a-9b25-c57fc3004c9c}, ! Layer 2
  {aeaad637-7ebf-49be-80f9-ba1f55c54879}, ! Layer 3
  {07ffde65-8065-4ec1-959b-8780e29d1b0e}; ! Layer 4

OS:Material,
  {7dfb25aa-3ca4-42b7-9312-40c1a77b0479}, ! Handle
  1IN Stucco,                             ! Name
  Smooth,                                 ! Roughness
  0.0253,                                 ! Thickness {m}
  0.6918,                                 ! Conductivity {W/m-K}
  1858,                                   ! Density {kg/m3}
  837,                                    ! Specific Heat {J/kg-K}
  0.9,                                    ! Thermal Absorptance
  0.92,                                   ! Solar Absorptance
  0.92;                                   ! Visible Absorptance

OS:Material,
  {dbaf4b89-2889-4e4a-9b25-c57fc3004c9c}, ! Handle
  8IN Concrete HW,                        ! Name
  MediumRough,                            ! Roughness
  0.2033,                                 ! Thickness {m}
  1.7296,                                 ! Conductivity {W/m-K}
  2243,                                   ! Density {kg/m3}
  837,                                    ! Specific Heat {J/kg-K}
  0.9,                                    ! Thermal Absorptance
  0.65,                                   ! Solar Absorptance
  0.65;                                   ! Visible Absorptance

OS:Material,
  {aeaad637-7ebf-49be-80f9-ba1f55c54879}, ! Handle
  Wall Insulation [8],                    ! Name
  MediumRough,                            ! Roughness
  0.067929,                               ! Thickness {m}
  0.0432,                                 ! Conductivity {W/m-K}
  91,                                     ! Density {kg/m3}
  837,                                    ! Specific Heat {J/kg-K}
  0.9,                                    ! Thermal Absorptance
  0.5,                                    ! Solar Absorptance
  0.5;                                    ! Visible Absorptance

OS:Material,
  {07ffde65-8065-4ec1-959b-8780e29d1b0e}, ! Handle
  1/2IN Gypsum,                           ! Name
  Smooth,                                 ! Roughness
  0.01271,                                ! Thickness {m}
  0.16,                                   ! Conductivity {W/m-K}
  784.9,                                  ! Density {kg/m3}
  830,                                    ! Specific Heat {J/kg-K}
  0.9,                                    ! Thermal Absorptance
  0.92,                                   ! Solar Absorptance
  0.92;                                   ! Visible Absorptance

OS:ComponentCost:LineItem,
  {b4391a61-b8db-457f-8122-6760cc43a032}, ! Handle
  90.1-2001 Nonres B22 Ext Wall Mass,     ! Name
  ,                                       ! Type
  Construction,                           ! Line Item Type
  90.1-2001 Nonres B22 Ext Wall Mass,     ! Item Name
  ,                                       ! Object End Use Key
  ,                                       ! Quantity {dimensionless}
  65.826,                                 ! Material Cost {$}
  CostPerArea;                            ! Material Cost Units

