
OS:Version,
  {19ec004c-4eef-4a78-878d-7c3a0750d621}, ! Handle
  0.9.3;                                  ! Version Identifier

OS:ComponentCost:LineItem,
  {a77869cf-a0a1-483b-8b1a-893214660aee}, ! Handle
  90.1-2001 Nonres B18 Ext Wall Metal Building, ! Name
  ,                                       ! Type
  Construction,                           ! Line Item Type
  90.1-2001 Nonres B18 Ext Wall Metal Building, ! Item Name
  ,                                       ! Object End Use Key
  ,                                       ! Quantity {dimensionless}
  98.78,                                  ! Material Cost {$}
  CostPerArea;                            ! Material Cost Units

OS:Material,
  {66b043a3-b611-47b0-bcb8-f51ca2932b9e}, ! Handle
  Wall Insulation,                        ! Name
  MediumRough,                            ! Roughness
  0.0598725,                              ! Thickness {m}
  0.045,                                  ! Conductivity {W/m-K}
  265,                                    ! Density {kg/m3}
  836.8,                                  ! Specific Heat {J/kg-K}
  0.9,                                    ! Thermal Absorptance
  0.7,                                    ! Solar Absorptance
  0.7;                                    ! Visible Absorptance

OS:Material,
  {5546b7aa-17dd-47b1-9d59-4b491ba2dd09}, ! Handle
  Metal Siding,                           ! Name
  Smooth,                                 ! Roughness
  0.0015,                                 ! Thickness {m}
  44.96,                                  ! Conductivity {W/m-K}
  7688.86,                                ! Density {kg/m3}
  410,                                    ! Specific Heat {J/kg-K}
  0.9,                                    ! Thermal Absorptance
  0.2,                                    ! Solar Absorptance
  0.2;                                    ! Visible Absorptance

OS:Construction,
  {f411e8f8-8c82-476c-96bd-06a06270e720}, ! Handle
  90.1-2001 Nonres B18 Ext Wall Metal Building, ! Name
  ,                                       ! Surface Rendering Name
  {5546b7aa-17dd-47b1-9d59-4b491ba2dd09}, ! Layer 1
  {66b043a3-b611-47b0-bcb8-f51ca2932b9e}, ! Layer 2
  {bd09155e-8286-43cd-825e-77c2daa5d15b}; ! Layer 3

OS:Material,
  {bd09155e-8286-43cd-825e-77c2daa5d15b}, ! Handle
  1/2IN Gypsum,                           ! Name
  Smooth,                                 ! Roughness
  0.01271,                                ! Thickness {m}
  0.16,                                   ! Conductivity {W/m-K}
  784.9,                                  ! Density {kg/m3}
  830,                                    ! Specific Heat {J/kg-K}
  0.9,                                    ! Thermal Absorptance
  0.92,                                   ! Solar Absorptance
  0.92;                                   ! Visible Absorptance

