
OS:Version,
  {ba9ecb71-fa6a-4026-9ff4-7740693ac6c1}, ! Handle
  0.9.3;                                  ! Version Identifier

OS:Material,
  {cc170cfa-4f5c-4186-accd-624f38554f91}, ! Handle
  Metal Siding,                           ! Name
  Smooth,                                 ! Roughness
  0.0015,                                 ! Thickness {m}
  44.96,                                  ! Conductivity {W/m-K}
  7688.86,                                ! Density {kg/m3}
  410,                                    ! Specific Heat {J/kg-K}
  0.9,                                    ! Thermal Absorptance
  0.2,                                    ! Solar Absorptance
  0.2;                                    ! Visible Absorptance

OS:Construction,
  {2489d1d7-ce3a-4114-b7b6-398167a31f1b}, ! Handle
  90.1-2001 Nonres B3 Ext Wall Metal Building, ! Name
  ,                                       ! Surface Rendering Name
  {cc170cfa-4f5c-4186-accd-624f38554f91}, ! Layer 1
  {f1c2e47f-0d85-4946-bea4-781051f7da42}, ! Layer 2
  {70151b8a-e78a-4d70-831e-e6357905f296}; ! Layer 3

OS:Material,
  {f1c2e47f-0d85-4946-bea4-781051f7da42}, ! Handle
  Wall Insulation,                        ! Name
  MediumRough,                            ! Roughness
  0.0598725,                              ! Thickness {m}
  0.045,                                  ! Conductivity {W/m-K}
  265,                                    ! Density {kg/m3}
  836.8,                                  ! Specific Heat {J/kg-K}
  0.9,                                    ! Thermal Absorptance
  0.7,                                    ! Solar Absorptance
  0.7;                                    ! Visible Absorptance

OS:Material,
  {70151b8a-e78a-4d70-831e-e6357905f296}, ! Handle
  1/2IN Gypsum,                           ! Name
  Smooth,                                 ! Roughness
  0.01271,                                ! Thickness {m}
  0.16,                                   ! Conductivity {W/m-K}
  784.9,                                  ! Density {kg/m3}
  830,                                    ! Specific Heat {J/kg-K}
  0.9,                                    ! Thermal Absorptance
  0.92,                                   ! Solar Absorptance
  0.92;                                   ! Visible Absorptance

OS:ComponentCost:LineItem,
  {49b394b4-ab29-4885-a288-5d9f11790501}, ! Handle
  90.1-2001 Nonres B3 Ext Wall Metal Building, ! Name
  ,                                       ! Type
  Construction,                           ! Line Item Type
  90.1-2001 Nonres B3 Ext Wall Metal Building, ! Item Name
  ,                                       ! Object End Use Key
  ,                                       ! Quantity {dimensionless}
  98.78,                                  ! Material Cost {$}
  CostPerArea;                            ! Material Cost Units

