
OS:Version,
  {1546f4f1-44f6-4904-a523-b00a16690a39}, ! Handle
  0.9.3;                                  ! Version Identifier

OS:Construction,
  {4886783a-9871-4121-884a-c32beb446231}, ! Handle
  90.1-1999 Nonres B17 Window Fixed,      ! Name
  ,                                       ! Surface Rendering Name
  {80abb887-9cbd-45be-8f39-f50f7a1b5fe7}; ! Layer 1

OS:WindowMaterial:Glazing,
  {80abb887-9cbd-45be-8f39-f50f7a1b5fe7}, ! Handle
  Theoretical Glass [36],                 ! Name
  SpectralAverage,                        ! Optical Data Type
  ,                                       ! Window Glass Spectral Data Set Name
  0.003,                                  ! Thickness {m}
  0.354957,                               ! Solar Transmittance at Normal Incidence
  0.595043,                               ! Front Side Solar Reflectance at Normal Incidence
  0.595043,                               ! Back Side Solar Reflectance at Normal Incidence
  0.376261,                               ! Visible Transmittance at Normal Incidence
  0.573739,                               ! Front Side Visible Reflectance at Normal Incidence
  0.573739,                               ! Back Side Visible Reflectance at Normal Incidence
  0,                                      ! Infrared Transmittance at Normal Incidence
  0.9,                                    ! Front Side Infrared Hemispherical Emissivity
  0.9,                                    ! Back Side Infrared Hemispherical Emissivity
  0.0134755;                              ! Conductivity {W/m-K}

OS:ComponentCost:LineItem,
  {445f66d8-33ad-47f6-a74c-6f7b406918b0}, ! Handle
  90.1-1999 Nonres B17 Window Fixed,      ! Name
  ,                                       ! Type
  Construction,                           ! Line Item Type
  90.1-1999 Nonres B17 Window Fixed,      ! Item Name
  ,                                       ! Object End Use Key
  ,                                       ! Quantity {dimensionless}
  554.2,                                  ! Material Cost {$}
  CostPerArea;                            ! Material Cost Units

OS:ComponentData,
  {76805765-7a05-4cd7-b1f1-d17ddb4c9c5a}, ! Handle
  Component Data 1,                       ! Name
  {2b53db25-fece-432c-baa5-ea54d1a05c0a}, ! UUID
  {92df27c3-bd74-4310-b085-2c6dd5692435}, ! Version UUID
  1363981117,                             ! Creation Timestamp
  1363981117,                             ! Version Timestamp
  {4886783a-9871-4121-884a-c32beb446231}, ! Name of Object 1
  {80abb887-9cbd-45be-8f39-f50f7a1b5fe7}, ! Name of Object 2
  {445f66d8-33ad-47f6-a74c-6f7b406918b0}; ! Name of Object 3

