
OS:Version,
  {b9353ca3-3b24-464e-abc8-c0605525208f}, ! Handle
  0.9.3;                                  ! Version Identifier

OS:ComponentCost:LineItem,
  {b08fa276-8dc0-4d56-b388-cd3874a8c8a0}, ! Handle
  189.1-2009 Res 6B Skylight without Curb, ! Name
  ,                                       ! Type
  Construction,                           ! Line Item Type
  189.1-2009 Res 6B Skylight without Curb, ! Item Name
  ,                                       ! Object End Use Key
  ,                                       ! Quantity {dimensionless}
  578.84,                                 ! Material Cost {$}
  CostPerArea;                            ! Material Cost Units

OS:Construction,
  {4ae9a615-6819-4512-a405-74d62554a804}, ! Handle
  189.1-2009 Res 6B Skylight without Curb, ! Name
  ,                                       ! Surface Rendering Name
  {a6f76209-05df-4782-bdb6-a72191fdf01b}; ! Layer 1

OS:WindowMaterial:Glazing,
  {a6f76209-05df-4782-bdb6-a72191fdf01b}, ! Handle
  Theoretical Glass [227],                ! Name
  SpectralAverage,                        ! Optical Data Type
  ,                                       ! Window Glass Spectral Data Set Name
  0.003,                                  ! Thickness {m}
  0.370364,                               ! Solar Transmittance at Normal Incidence
  0.579636,                               ! Front Side Solar Reflectance at Normal Incidence
  0.579636,                               ! Back Side Solar Reflectance at Normal Incidence
  0.494971,                               ! Visible Transmittance at Normal Incidence
  0.455029,                               ! Front Side Visible Reflectance at Normal Incidence
  0.455029,                               ! Back Side Visible Reflectance at Normal Incidence
  0,                                      ! Infrared Transmittance at Normal Incidence
  0.9,                                    ! Front Side Infrared Hemispherical Emissivity
  0.9,                                    ! Back Side Infrared Hemispherical Emissivity
  0.0133196;                              ! Conductivity {W/m-K}

