
OS:Version,
  {3cb0e214-ff24-4840-96ba-932f98cc69ad}, ! Handle
  0.9.3;                                  ! Version Identifier

OS:Construction,
  {039ffb3d-82ec-460b-ac81-b4fe561da8cc}, ! Handle
  U-W DE MFH ExtWall -1948 6,		  ! Name
  ,                                       ! Surface Rendering Name
  {ae203aa4-81b5-4150-a91b-a8561beaec86}, ! Layer 1
  {244de17f-0aa4-46c0-bf6a-e473762bbd7d}, ! Layer 2
  {b7d5ecd1-21a9-4dc6-89b2-1f11bc988da7}; ! Layer 3

OS:Material,
  {ae203aa4-81b5-4150-a91b-a8561beaec86}, ! Handle	
  Gips-Kalk Innenputz 1.5cm,              ! Name
  Smooth,                                 ! Roughness
  0.015,                                  ! Thickness {m}
  0.7,                                    ! Conductivity {W/m-K}
  1100,                                   ! Density {kg/m3}
  1010,                                   ! Specific Heat {J/kg-K}
  0.3,                                    ! Thermal Absorptance
  0.3,                                    ! Solar Absorptance
  0.3;                                    ! Visible Absorptance

OS:Material,
  {244de17f-0aa4-46c0-bf6a-e473762bbd7d}, ! Handle		
  Vollziegel 36.5cm,                      ! Name
  Smooth,                                 ! Roughness
  0.365,                                  ! Thickness {m}
  0.81,                                   ! Conductivity {W/m-K}
  1800,                                   ! Density {kg/m3}
  1000,                                   ! Specific Heat {J/kg-K}
  0.7,                                    ! Thermal Absorptance
  0.7,                                    ! Solar Absorptance
  0.7;                                    ! Visible Absorptance

OS:Material,
  {b7d5ecd1-21a9-4dc6-89b2-1f11bc988da7}, ! Handle		
  Kalkputz 2cm,                           ! Name
  Smooth,                                 ! Roughness
  0.02,                                   ! Thickness {m}
  0.87,                                   ! Conductivity {W/m-K}
  1400,                                   ! Density {kg/m3}
  0.3,                                    ! Thermal Absorptance
  0.3,                                    ! Solar Absorptance
  0.3;                                    ! Visible Absorptance

OS:ComponentCost:LineItem,
  {f8596f98-5d09-4800-b9e5-a238cffac652}, ! Handle
  U-W DE MFH ExtWall -1948 6,             ! Name
  ,                                       ! Type
  Construction,                           ! Line Item Type
  U-W DE MFH ExtWall -1948 6,             ! Item Name
  ,                                       ! Object End Use Key
  ,                                       ! Quantity {dimensionless}
  0.0,                                    ! Material Cost {$}
  CostPerArea;                            ! Material Cost Units

OS:ComponentData,
  {67381396-cef4-11e7-abc4-cec278b6b50a}, ! Handle
  Component Data 1,                       ! Name
  {67381454-cef4-11e7-abc4-cec278b6b50a}, ! UUID
  {6738186e-cef4-11e7-abc4-cec278b6b50a}, ! Version UUID
  1363981182,                             ! Creation Timestamp
  1363981182,                             ! Version Timestamp
  {039ffb3d-82ec-460b-ac81-b4fe561da8cc}, ! Name of Object 1
  {ae203aa4-81b5-4150-a91b-a8561beaec86}, ! Name of Object 2
  {244de17f-0aa4-46c0-bf6a-e473762bbd7d}, ! Name of Object 3
  {b7d5ecd1-21a9-4dc6-89b2-1f11bc988da7}, ! Name of Object 4
  {f8596f98-5d09-4800-b9e5-a238cffac652}; ! Name of Object 5

