
OS:Version,
  {7fc39012-787e-4601-8d03-f87feaef8ea6}, ! Handle
  0.9.3;                                  ! Version Identifier

OS:Material,
  {5ecc5451-bedb-4f51-9b6c-d9dcacba40d4}, ! Handle
  Metal Roofing,                          ! Name
  MediumSmooth,                           ! Roughness
  0.001524,                               ! Thickness {m}
  45.006,                                 ! Conductivity {W/m-K}
  7680,                                   ! Density {kg/m3}
  418.4,                                  ! Specific Heat {J/kg-K}
  0.9,                                    ! Thermal Absorptance
  0.7,                                    ! Solar Absorptance
  0.3;                                    ! Visible Absorptance

OS:ComponentCost:LineItem,
  {8a7a0769-d028-471c-8c4c-4470bcec9365}, ! Handle
  189.1-2009 Res 3A Roof Metal Building,  ! Name
  ,                                       ! Type
  Construction,                           ! Line Item Type
  189.1-2009 Res 3A Roof Metal Building,  ! Item Name
  ,                                       ! Object End Use Key
  ,                                       ! Quantity {dimensionless}
  47.657,                                 ! Material Cost {$}
  CostPerArea;                            ! Material Cost Units

OS:Material,
  {4b6fa93d-1149-4b9d-b347-b7ebf5d2c51e}, ! Handle
  Roof Insulation [22],                   ! Name
  MediumRough,                            ! Roughness
  0.23578,                                ! Thickness {m}
  0.049,                                  ! Conductivity {W/m-K}
  265,                                    ! Density {kg/m3}
  836.8,                                  ! Specific Heat {J/kg-K}
  0.9,                                    ! Thermal Absorptance
  0.7,                                    ! Solar Absorptance
  0.7;                                    ! Visible Absorptance

OS:Construction,
  {f538b259-3eac-422b-8620-57d13b1b711d}, ! Handle
  189.1-2009 Res 3A Roof Metal Building,  ! Name
  ,                                       ! Surface Rendering Name
  {5ecc5451-bedb-4f51-9b6c-d9dcacba40d4}, ! Layer 1
  {4b6fa93d-1149-4b9d-b347-b7ebf5d2c51e}; ! Layer 2

