
OS:Version,
  {093bfded-5990-4cbe-9ba8-0f3bf0e191d5}, !- Handle
  1.0.6;                                  !- Version Identifier

OS:WindowMaterial:Glazing,
  {8f7dedab-1c6a-41bd-b627-20211f9e8ef1}, !- Handle
  189.1-2011 NONRES 1A NONMETAL FRAMING THEORETICAL GLAZING, !- Name
  SpectralAverage,                        !- Optical Data Type
  ,                                       !- Window Glass Spectral Data Set Name
  0.002,                                  !- Thickness {m}
  0.10958,                                !- Solar Transmittance at Normal Incidence
  0.41418,                                !- Front Side Solar Reflectance at Normal Incidence
  0.41418,                                !- Back Side Solar Reflectance at Normal Incidence
  0.10958,                                !- Visible Transmittance at Normal Incidence
  0.41418,                                !- Front Side Visible Reflectance at Normal Incidence
  0.41418,                                !- Back Side Visible Reflectance at Normal Incidence
  0,                                      !- Infrared Transmittance at Normal Incidence
  0.84,                                   !- Front Side Infrared Hemispherical Emissivity
  0.84,                                   !- Back Side Infrared Hemispherical Emissivity
  0.39122,                                !- Conductivity {W/m-K}
  1,                                      !- Dirt Correction Factor for Solar and Visible Transmittance
  No;                                     !- Solar Diffusing

OS:Construction,
  {e17f7aac-afd7-47ed-971b-819aa7e7a92d}, !- Handle
  189.1-2011 NONRES 1A NONMETAL FRAMING,  !- Name
  ,                                       !- Surface Rendering Name
  {8f7dedab-1c6a-41bd-b627-20211f9e8ef1}; !- Layer 1

