
OS:Version,
  {151394a6-88e8-43b3-bc2f-7033269fc899}, ! Handle
  0.9.3;                                  ! Version Identifier

OS:ComponentCost:LineItem,
  {54ea96e9-25e9-4c1e-86b6-a235c1db533c}, ! Handle
  90.1-1999 Res B13 Roof Metal Building,  ! Name
  ,                                       ! Type
  Construction,                           ! Line Item Type
  90.1-1999 Res B13 Roof Metal Building,  ! Item Name
  ,                                       ! Object End Use Key
  ,                                       ! Quantity {dimensionless}
  38.206,                                 ! Material Cost {$}
  CostPerArea;                            ! Material Cost Units

OS:Material,
  {8d39681d-7a3f-48c7-960e-7a8090a4063d}, ! Handle
  Metal Roofing,                          ! Name
  MediumSmooth,                           ! Roughness
  0.001524,                               ! Thickness {m}
  45.006,                                 ! Conductivity {W/m-K}
  7680,                                   ! Density {kg/m3}
  418.4,                                  ! Specific Heat {J/kg-K}
  0.9,                                    ! Thermal Absorptance
  0.7,                                    ! Solar Absorptance
  0.3;                                    ! Visible Absorptance

OS:Construction,
  {d3902a42-79f0-44e8-9351-1b8f58abcbd1}, ! Handle
  90.1-1999 Res B13 Roof Metal Building,  ! Name
  ,                                       ! Surface Rendering Name
  {8d39681d-7a3f-48c7-960e-7a8090a4063d}, ! Layer 1
  {e11716c6-334d-4a18-85ff-d126a614f9b7}; ! Layer 2

OS:Material,
  {e11716c6-334d-4a18-85ff-d126a614f9b7}, ! Handle
  Roof Insulation [1],                    ! Name
  MediumRough,                            ! Roughness
  0.123533,                               ! Thickness {m}
  0.049,                                  ! Conductivity {W/m-K}
  265,                                    ! Density {kg/m3}
  836.8,                                  ! Specific Heat {J/kg-K}
  0.9,                                    ! Thermal Absorptance
  0.7,                                    ! Solar Absorptance
  0.7;                                    ! Visible Absorptance

