
OS:Version,
  {a2ec6ef8-7bf8-4141-9401-148af3a8e6a4}, ! Handle
  0.9.3;                                  ! Version Identifier

OS:Construction,
  {11d02db0-2594-4ab0-8635-1cf1aa350301}, ! Handle
  90.1-1999 Res B13 Roof Metal Building,  ! Name
  ,                                       ! Surface Rendering Name
  {6e0cdf47-b271-4e2f-8a3d-6f1277b89a8e}, ! Layer 1
  {d055eb9d-2a2a-42e4-b6e2-a6908435af4b}; ! Layer 2

OS:Material,
  {6e0cdf47-b271-4e2f-8a3d-6f1277b89a8e}, ! Handle
  Metal Roofing,                          ! Name
  MediumSmooth,                           ! Roughness
  0.001524,                               ! Thickness {m}
  45.006,                                 ! Conductivity {W/m-K}
  7680,                                   ! Density {kg/m3}
  418.4,                                  ! Specific Heat {J/kg-K}
  0.9,                                    ! Thermal Absorptance
  0.7,                                    ! Solar Absorptance
  0.3;                                    ! Visible Absorptance

OS:Material,
  {d055eb9d-2a2a-42e4-b6e2-a6908435af4b}, ! Handle
  Roof Insulation [1],                    ! Name
  MediumRough,                            ! Roughness
  0.123533,                               ! Thickness {m}
  0.049,                                  ! Conductivity {W/m-K}
  265,                                    ! Density {kg/m3}
  836.8,                                  ! Specific Heat {J/kg-K}
  0.9,                                    ! Thermal Absorptance
  0.7,                                    ! Solar Absorptance
  0.7;                                    ! Visible Absorptance

OS:ComponentCost:LineItem,
  {4121ce2f-8517-4862-882c-d5d9a241f1fe}, ! Handle
  90.1-1999 Res B13 Roof Metal Building,  ! Name
  ,                                       ! Type
  Construction,                           ! Line Item Type
  90.1-1999 Res B13 Roof Metal Building,  ! Item Name
  ,                                       ! Object End Use Key
  ,                                       ! Quantity {dimensionless}
  38.206,                                 ! Material Cost {$}
  CostPerArea;                            ! Material Cost Units

OS:ComponentData,
  {545f18fa-b80f-4d0c-834e-a98da5c2a955}, ! Handle
  Component Data 1,                       ! Name
  {7359f0d9-dde5-4dcf-b136-af5bbdd06d12}, ! UUID
  {e28c617f-a543-4cd5-b92c-11d0c549d996}, ! Version UUID
  1363981219,                             ! Creation Timestamp
  1363981219,                             ! Version Timestamp
  {11d02db0-2594-4ab0-8635-1cf1aa350301}, ! Name of Object 1
  {6e0cdf47-b271-4e2f-8a3d-6f1277b89a8e}, ! Name of Object 2
  {d055eb9d-2a2a-42e4-b6e2-a6908435af4b}, ! Name of Object 3
  {4121ce2f-8517-4862-882c-d5d9a241f1fe}; ! Name of Object 4

