
OS:Version,
  {569a9d90-c6b8-4be6-a1d8-8685ef91ab23}, ! Handle
  0.9.3;                                  ! Version Identifier

OS:Construction,
  {73c493c2-c747-412f-8a0d-ef9490deac56}, ! Handle
  90.1-1999 Res B15 Ext Wall Metal Building, ! Name
  ,                                       ! Surface Rendering Name
  {37337ead-b718-483b-a84a-dbcc97269a3b}, ! Layer 1
  {93b7960d-1b1f-4d54-ac52-0933716f11b4}, ! Layer 2
  {ebc48eab-4e1f-4757-a0c6-029890f39385}; ! Layer 3

OS:Material,
  {37337ead-b718-483b-a84a-dbcc97269a3b}, ! Handle
  Metal Siding,                           ! Name
  Smooth,                                 ! Roughness
  0.0015,                                 ! Thickness {m}
  44.96,                                  ! Conductivity {W/m-K}
  7688.86,                                ! Density {kg/m3}
  410,                                    ! Specific Heat {J/kg-K}
  0.9,                                    ! Thermal Absorptance
  0.2,                                    ! Solar Absorptance
  0.2;                                    ! Visible Absorptance

OS:Material,
  {93b7960d-1b1f-4d54-ac52-0933716f11b4}, ! Handle
  Wall Insulation,                        ! Name
  MediumRough,                            ! Roughness
  0.0598725,                              ! Thickness {m}
  0.045,                                  ! Conductivity {W/m-K}
  265,                                    ! Density {kg/m3}
  836.8,                                  ! Specific Heat {J/kg-K}
  0.9,                                    ! Thermal Absorptance
  0.7,                                    ! Solar Absorptance
  0.7;                                    ! Visible Absorptance

OS:Material,
  {ebc48eab-4e1f-4757-a0c6-029890f39385}, ! Handle
  1/2IN Gypsum,                           ! Name
  Smooth,                                 ! Roughness
  0.01271,                                ! Thickness {m}
  0.16,                                   ! Conductivity {W/m-K}
  784.9,                                  ! Density {kg/m3}
  830,                                    ! Specific Heat {J/kg-K}
  0.9,                                    ! Thermal Absorptance
  0.92,                                   ! Solar Absorptance
  0.92;                                   ! Visible Absorptance

OS:ComponentCost:LineItem,
  {d42a9c1f-ffd6-4906-ab99-aeadeb67044d}, ! Handle
  90.1-1999 Res B15 Ext Wall Metal Building, ! Name
  ,                                       ! Type
  Construction,                           ! Line Item Type
  90.1-1999 Res B15 Ext Wall Metal Building, ! Item Name
  ,                                       ! Object End Use Key
  ,                                       ! Quantity {dimensionless}
  98.78,                                  ! Material Cost {$}
  CostPerArea;                            ! Material Cost Units

