
OS:Version,
  {46465aee-b3aa-4b85-9669-2d88dc7a21c9}, ! Handle
  0.9.3;                                  ! Version Identifier

OS:Construction,
  {9e20fe6c-1cdb-4d32-ac16-4cd767e5edf1}, ! Handle
  AEDG SHC Nonres 6B Ext Wall Mass,       ! Name
  ,                                       ! Surface Rendering Name
  {bd2a7ebf-a608-4f7c-ba1d-320b826ce295}, ! Layer 1
  {3e8e631e-e291-4b26-a7ad-446f863391da}, ! Layer 2
  {e068b69f-66bd-412b-83be-8964948b2efe}, ! Layer 3
  {6bee8cde-f1fd-4deb-b55f-29e74daedce5}; ! Layer 4

OS:Material,
  {bd2a7ebf-a608-4f7c-ba1d-320b826ce295}, ! Handle
  1IN Stucco,                             ! Name
  Smooth,                                 ! Roughness
  0.0253,                                 ! Thickness {m}
  0.6918,                                 ! Conductivity {W/m-K}
  1858,                                   ! Density {kg/m3}
  837,                                    ! Specific Heat {J/kg-K}
  0.9,                                    ! Thermal Absorptance
  0.92,                                   ! Solar Absorptance
  0.92;                                   ! Visible Absorptance

OS:Material,
  {3e8e631e-e291-4b26-a7ad-446f863391da}, ! Handle
  8IN Concrete HW,                        ! Name
  MediumRough,                            ! Roughness
  0.2033,                                 ! Thickness {m}
  1.7296,                                 ! Conductivity {W/m-K}
  2243,                                   ! Density {kg/m3}
  837,                                    ! Specific Heat {J/kg-K}
  0.9,                                    ! Thermal Absorptance
  0.65,                                   ! Solar Absorptance
  0.65;                                   ! Visible Absorptance

OS:Material,
  {e068b69f-66bd-412b-83be-8964948b2efe}, ! Handle
  Wall Insulation [63],                   ! Name
  MediumRough,                            ! Roughness
  0.108236,                               ! Thickness {m}
  0.0432,                                 ! Conductivity {W/m-K}
  91,                                     ! Density {kg/m3}
  837,                                    ! Specific Heat {J/kg-K}
  0.9,                                    ! Thermal Absorptance
  0.5,                                    ! Solar Absorptance
  0.5;                                    ! Visible Absorptance

OS:Material,
  {6bee8cde-f1fd-4deb-b55f-29e74daedce5}, ! Handle
  1/2IN Gypsum,                           ! Name
  Smooth,                                 ! Roughness
  0.01271,                                ! Thickness {m}
  0.16,                                   ! Conductivity {W/m-K}
  784.9,                                  ! Density {kg/m3}
  830,                                    ! Specific Heat {J/kg-K}
  0.9,                                    ! Thermal Absorptance
  0.92,                                   ! Solar Absorptance
  0.92;                                   ! Visible Absorptance

OS:ComponentCost:LineItem,
  {2fd01a78-6eb9-4d73-8bbd-f9dc9e9a463e}, ! Handle
  AEDG SHC Nonres 6B Ext Wall Mass,       ! Name
  ,                                       ! Type
  Construction,                           ! Line Item Type
  AEDG SHC Nonres 6B Ext Wall Mass,       ! Item Name
  ,                                       ! Object End Use Key
  ,                                       ! Quantity {dimensionless}
  0,                                      ! Material Cost {$}
  CostPerArea;                            ! Material Cost Units

