
OS:Version,
  {345253af-7782-4660-9f3f-b5447d3232fc}, ! Handle
  0.9.3;                                  ! Version Identifier

OS:Construction,
  {292eaee1-dbaf-4801-966e-ba7bd3777316}, ! Handle
  90.1-1999 Nonres B19 Ext Wall Mass,     ! Name
  ,                                       ! Surface Rendering Name
  {e749a5c1-011f-46d4-8f01-a3c5a0d423a5}, ! Layer 1
  {519b97df-84a3-43af-a9f1-f0c57487dfea}, ! Layer 2
  {68386549-b6dc-408c-a403-32866c12c9f3}, ! Layer 3
  {271faa8d-35ee-4659-84df-8d6c0d957598}; ! Layer 4

OS:Material,
  {e749a5c1-011f-46d4-8f01-a3c5a0d423a5}, ! Handle
  1IN Stucco,                             ! Name
  Smooth,                                 ! Roughness
  0.0253,                                 ! Thickness {m}
  0.6918,                                 ! Conductivity {W/m-K}
  1858,                                   ! Density {kg/m3}
  837,                                    ! Specific Heat {J/kg-K}
  0.9,                                    ! Thermal Absorptance
  0.92,                                   ! Solar Absorptance
  0.92;                                   ! Visible Absorptance

OS:Material,
  {519b97df-84a3-43af-a9f1-f0c57487dfea}, ! Handle
  8IN Concrete HW,                        ! Name
  MediumRough,                            ! Roughness
  0.2033,                                 ! Thickness {m}
  1.7296,                                 ! Conductivity {W/m-K}
  2243,                                   ! Density {kg/m3}
  837,                                    ! Specific Heat {J/kg-K}
  0.9,                                    ! Thermal Absorptance
  0.65,                                   ! Solar Absorptance
  0.65;                                   ! Visible Absorptance

OS:Material,
  {68386549-b6dc-408c-a403-32866c12c9f3}, ! Handle
  Wall Insulation [7],                    ! Name
  MediumRough,                            ! Roughness
  0.056577,                               ! Thickness {m}
  0.0432,                                 ! Conductivity {W/m-K}
  91,                                     ! Density {kg/m3}
  837,                                    ! Specific Heat {J/kg-K}
  0.9,                                    ! Thermal Absorptance
  0.5,                                    ! Solar Absorptance
  0.5;                                    ! Visible Absorptance

OS:Material,
  {271faa8d-35ee-4659-84df-8d6c0d957598}, ! Handle
  1/2IN Gypsum,                           ! Name
  Smooth,                                 ! Roughness
  0.01271,                                ! Thickness {m}
  0.16,                                   ! Conductivity {W/m-K}
  784.9,                                  ! Density {kg/m3}
  830,                                    ! Specific Heat {J/kg-K}
  0.9,                                    ! Thermal Absorptance
  0.92,                                   ! Solar Absorptance
  0.92;                                   ! Visible Absorptance

OS:ComponentCost:LineItem,
  {61546d67-d9ae-4d49-8b36-a3872af396d6}, ! Handle
  90.1-1999 Nonres B19 Ext Wall Mass,     ! Name
  ,                                       ! Type
  Construction,                           ! Line Item Type
  90.1-1999 Nonres B19 Ext Wall Mass,     ! Item Name
  ,                                       ! Object End Use Key
  ,                                       ! Quantity {dimensionless}
  63.663,                                 ! Material Cost {$}
  CostPerArea;                            ! Material Cost Units

OS:ComponentData,
  {98e208a3-ac9d-4285-a455-85e4231a3380}, ! Handle
  Component Data 1,                       ! Name
  {e10f9306-2481-48b5-8219-0be5de766ce0}, ! UUID
  {709d3d9d-943d-43fb-8a61-d29314db9b5d}, ! Version UUID
  1363981123,                             ! Creation Timestamp
  1363981123,                             ! Version Timestamp
  {292eaee1-dbaf-4801-966e-ba7bd3777316}, ! Name of Object 1
  {e749a5c1-011f-46d4-8f01-a3c5a0d423a5}, ! Name of Object 2
  {519b97df-84a3-43af-a9f1-f0c57487dfea}, ! Name of Object 3
  {68386549-b6dc-408c-a403-32866c12c9f3}, ! Name of Object 4
  {271faa8d-35ee-4659-84df-8d6c0d957598}, ! Name of Object 5
  {61546d67-d9ae-4d49-8b36-a3872af396d6}; ! Name of Object 6

