
OS:Version,
  {033b6668-07e1-4889-afb6-1942db125269}, ! Handle
  0.9.3;                                  ! Version Identifier

OS:Construction,
  {46ebee2a-3e6a-481e-849d-5d9650ef3c68}, ! Handle
  90.1-2007 Nonres 8A Skylight without Curb, ! Name
  ,                                       ! Surface Rendering Name
  {e3a6acbd-88bf-4c2c-ad4a-9f3c34e81875}; ! Layer 1

OS:WindowMaterial:Glazing,
  {e3a6acbd-88bf-4c2c-ad4a-9f3c34e81875}, ! Handle
  Theoretical Glass [193],                ! Name
  SpectralAverage,                        ! Optical Data Type
  ,                                       ! Window Glass Spectral Data Set Name
  0.003,                                  ! Thickness {m}
  0.702393,                               ! Solar Transmittance at Normal Incidence
  0.247607,                               ! Front Side Solar Reflectance at Normal Incidence
  0.247607,                               ! Back Side Solar Reflectance at Normal Incidence
  0.70976,                                ! Visible Transmittance at Normal Incidence
  0.24024,                                ! Front Side Visible Reflectance at Normal Incidence
  0.24024,                                ! Back Side Visible Reflectance at Normal Incidence
  0,                                      ! Infrared Transmittance at Normal Incidence
  0.9,                                    ! Front Side Infrared Hemispherical Emissivity
  0.9,                                    ! Back Side Infrared Hemispherical Emissivity
  0.0205405;                              ! Conductivity {W/m-K}

OS:ComponentCost:LineItem,
  {de035892-31bb-4e9d-9c18-b3ac8a065ce9}, ! Handle
  90.1-2007 Nonres 8A Skylight without Curb, ! Name
  ,                                       ! Type
  Construction,                           ! Line Item Type
  90.1-2007 Nonres 8A Skylight without Curb, ! Item Name
  ,                                       ! Object End Use Key
  ,                                       ! Quantity {dimensionless}
  543.117,                                ! Material Cost {$}
  CostPerArea;                            ! Material Cost Units

