
OS:Version,
  {abc51121-19d1-4b64-aa0b-1e9aaab3e78e}, ! Handle
  0.9.3;                                  ! Version Identifier

OS:Material:NoMass,
  {e829bee0-4d72-4b19-8486-c98a0861b6b7}, ! Handle
  CP02 CARPET PAD,                        ! Name
  VeryRough,                              ! Roughness
  0.21648,                                ! Thermal Resistance {m2-K/W}
  0.9,                                    ! Thermal Absorptance
  0.7,                                    ! Solar Absorptance
  0.8;                                    ! Visible Absorptance

OS:ComponentCost:LineItem,
  {3d62d17f-6356-4db7-b0b1-05ea17e068b7}, ! Handle
  Title 24-2008 Nonres 1 Ext Slab Unheated - 4in Slab with Carpet, ! Name
  ,                                       ! Type
  Construction,                           ! Line Item Type
  Title 24-2008 Nonres 1 Ext Slab Unheated - 4in Slab with Carpet, ! Item Name
  ,                                       ! Object End Use Key
  ,                                       ! Quantity {dimensionless}
  45.52,                                  ! Material Cost {$}
  CostPerArea;                            ! Material Cost Units

OS:Material,
  {dc16dcad-fb10-462b-b807-b052209f5dc2}, ! Handle
  MAT-CC05 4 HW CONCRETE,                 ! Name
  Rough,                                  ! Roughness
  0.1016,                                 ! Thickness {m}
  1.311,                                  ! Conductivity {W/m-K}
  2240,                                   ! Density {kg/m3}
  836.8,                                  ! Specific Heat {J/kg-K}
  0.9,                                    ! Thermal Absorptance
  0.7,                                    ! Solar Absorptance
  0.7;                                    ! Visible Absorptance

OS:Construction,
  {0773f774-3368-4469-b7d3-4717349098f5}, ! Handle
  Title 24-2008 Nonres 1 Ext Slab Unheated - 4in Slab with Carpet, ! Name
  ,                                       ! Surface Rendering Name
  {dc16dcad-fb10-462b-b807-b052209f5dc2}, ! Layer 1
  {e829bee0-4d72-4b19-8486-c98a0861b6b7}; ! Layer 2

