
OS:Version,
  {06b4fa4f-ff08-4b3f-a2a0-726b03a36c58}, ! Handle
  0.9.3;                                  ! Version Identifier

OS:ComponentCost:LineItem,
  {850e1bdc-5d3c-40e4-b893-e0ff249862f0}, ! Handle
  90.1-2004 Res 7A Attic Floor,           ! Name
  ,                                       ! Type
  Construction,                           ! Line Item Type
  90.1-2004 Res 7A Attic Floor,           ! Item Name
  ,                                       ! Object End Use Key
  ,                                       ! Quantity {dimensionless}
  35.009,                                 ! Material Cost {$}
  CostPerArea;                            ! Material Cost Units

OS:Construction,
  {8ab31c3b-945b-4f90-bdd5-76eb538a5875}, ! Handle
  90.1-2004 Res 7A Attic Floor,           ! Name
  ,                                       ! Surface Rendering Name
  {731d4cd5-cd86-4ed4-8deb-2df377ae0442}, ! Layer 1
  {993d9417-a3a8-4d8f-b5ce-6c71bee09412}, ! Layer 2
  {cbedbb65-b012-4bc1-8137-cd3fa1a3d15b}; ! Layer 3

OS:Material,
  {731d4cd5-cd86-4ed4-8deb-2df377ae0442}, ! Handle
  1/2IN Gypsum Top,                       ! Name
  Smooth,                                 ! Roughness
  0.01271,                                ! Thickness {m}
  0.16,                                   ! Conductivity {W/m-K}
  784.9,                                  ! Density {kg/m3}
  830,                                    ! Specific Heat {J/kg-K}
  0.9,                                    ! Thermal Absorptance
  0.92,                                   ! Solar Absorptance
  0.92;                                   ! Visible Absorptance

OS:Material,
  {993d9417-a3a8-4d8f-b5ce-6c71bee09412}, ! Handle
  AtticFloor Insulation [1],              ! Name
  MediumRough,                            ! Roughness
  0.303719,                               ! Thickness {m}
  0.049,                                  ! Conductivity {W/m-K}
  265,                                    ! Density {kg/m3}
  836.8,                                  ! Specific Heat {J/kg-K}
  0.9,                                    ! Thermal Absorptance
  0.7,                                    ! Solar Absorptance
  0.7;                                    ! Visible Absorptance

OS:Material,
  {cbedbb65-b012-4bc1-8137-cd3fa1a3d15b}, ! Handle
  1/2IN Gypsum Bottom,                    ! Name
  Smooth,                                 ! Roughness
  0.01271,                                ! Thickness {m}
  0.16,                                   ! Conductivity {W/m-K}
  784.9,                                  ! Density {kg/m3}
  830,                                    ! Specific Heat {J/kg-K}
  0.9,                                    ! Thermal Absorptance
  0.92,                                   ! Solar Absorptance
  0.92;                                   ! Visible Absorptance

