
OS:Version,
  {8d779823-f5dd-48f8-b96b-7ffd72781950}, ! Handle
  0.9.3;                                  ! Version Identifier

OS:Material,
  {9f88c4fe-8bed-446d-9f38-1c50d2c20a0d}, ! Handle
  1IN Stucco,                             ! Name
  Smooth,                                 ! Roughness
  0.0253,                                 ! Thickness {m}
  0.6918,                                 ! Conductivity {W/m-K}
  1858,                                   ! Density {kg/m3}
  837,                                    ! Specific Heat {J/kg-K}
  0.9,                                    ! Thermal Absorptance
  0.92,                                   ! Solar Absorptance
  0.92;                                   ! Visible Absorptance

OS:Material,
  {45e7811c-9511-4c48-be35-d1713661dc8a}, ! Handle
  1/2IN Gypsum,                           ! Name
  Smooth,                                 ! Roughness
  0.01271,                                ! Thickness {m}
  0.16,                                   ! Conductivity {W/m-K}
  784.9,                                  ! Density {kg/m3}
  830,                                    ! Specific Heat {J/kg-K}
  0.9,                                    ! Thermal Absorptance
  0.92,                                   ! Solar Absorptance
  0.92;                                   ! Visible Absorptance

OS:Material,
  {e61485cc-ab03-4979-bba2-201f64b3b69c}, ! Handle
  Wall Insulation [36],                   ! Name
  MediumRough,                            ! Roughness
  0.0566394,                              ! Thickness {m}
  0.0432,                                 ! Conductivity {W/m-K}
  91,                                     ! Density {kg/m3}
  837,                                    ! Specific Heat {J/kg-K}
  0.9,                                    ! Thermal Absorptance
  0.5,                                    ! Solar Absorptance
  0.5;                                    ! Visible Absorptance

OS:Construction,
  {36fe6fc4-665e-40c3-9a52-fcca0e80fa45}, ! Handle
  189.1-2009 Nonres 3A Ext Wall Mass,     ! Name
  ,                                       ! Surface Rendering Name
  {9f88c4fe-8bed-446d-9f38-1c50d2c20a0d}, ! Layer 1
  {7b9e41af-0821-4ba2-afe2-2a961928ed42}, ! Layer 2
  {e61485cc-ab03-4979-bba2-201f64b3b69c}, ! Layer 3
  {45e7811c-9511-4c48-be35-d1713661dc8a}; ! Layer 4

OS:Material,
  {7b9e41af-0821-4ba2-afe2-2a961928ed42}, ! Handle
  8IN Concrete HW,                        ! Name
  MediumRough,                            ! Roughness
  0.2033,                                 ! Thickness {m}
  1.7296,                                 ! Conductivity {W/m-K}
  2243,                                   ! Density {kg/m3}
  837,                                    ! Specific Heat {J/kg-K}
  0.9,                                    ! Thermal Absorptance
  0.65,                                   ! Solar Absorptance
  0.65;                                   ! Visible Absorptance

OS:ComponentCost:LineItem,
  {3308895e-a533-449e-8e08-689ff1728db9}, ! Handle
  189.1-2009 Nonres 3A Ext Wall Mass,     ! Name
  ,                                       ! Type
  Construction,                           ! Line Item Type
  189.1-2009 Nonres 3A Ext Wall Mass,     ! Item Name
  ,                                       ! Object End Use Key
  ,                                       ! Quantity {dimensionless}
  63.676,                                 ! Material Cost {$}
  CostPerArea;                            ! Material Cost Units

