
OS:Version,
  {642cc78b-a9bd-4e47-8321-20dfd791aa1c}, ! Handle
  0.9.3;                                  ! Version Identifier

OS:Construction,
  {6f23b763-c24f-4156-9c29-f50ff49b318f}, ! Handle
  189.1-2009 Nonres 3A Ext Wall Mass,     ! Name
  ,                                       ! Surface Rendering Name
  {a723ec8b-fba6-448d-92f4-a7193fb8ff5b}, ! Layer 1
  {5c77e7f4-478e-443e-8f3d-d19dc13f020f}, ! Layer 2
  {64487bd5-d6ce-4236-87b0-d45b051cf233}, ! Layer 3
  {e74010db-1ff8-47d2-b2db-5c3bff05e1c6}; ! Layer 4

OS:Material,
  {a723ec8b-fba6-448d-92f4-a7193fb8ff5b}, ! Handle
  1IN Stucco,                             ! Name
  Smooth,                                 ! Roughness
  0.0253,                                 ! Thickness {m}
  0.6918,                                 ! Conductivity {W/m-K}
  1858,                                   ! Density {kg/m3}
  837,                                    ! Specific Heat {J/kg-K}
  0.9,                                    ! Thermal Absorptance
  0.92,                                   ! Solar Absorptance
  0.92;                                   ! Visible Absorptance

OS:Material,
  {5c77e7f4-478e-443e-8f3d-d19dc13f020f}, ! Handle
  8IN Concrete HW,                        ! Name
  MediumRough,                            ! Roughness
  0.2033,                                 ! Thickness {m}
  1.7296,                                 ! Conductivity {W/m-K}
  2243,                                   ! Density {kg/m3}
  837,                                    ! Specific Heat {J/kg-K}
  0.9,                                    ! Thermal Absorptance
  0.65,                                   ! Solar Absorptance
  0.65;                                   ! Visible Absorptance

OS:Material,
  {64487bd5-d6ce-4236-87b0-d45b051cf233}, ! Handle
  Wall Insulation [36],                   ! Name
  MediumRough,                            ! Roughness
  0.0566394,                              ! Thickness {m}
  0.0432,                                 ! Conductivity {W/m-K}
  91,                                     ! Density {kg/m3}
  837,                                    ! Specific Heat {J/kg-K}
  0.9,                                    ! Thermal Absorptance
  0.5,                                    ! Solar Absorptance
  0.5;                                    ! Visible Absorptance

OS:Material,
  {e74010db-1ff8-47d2-b2db-5c3bff05e1c6}, ! Handle
  1/2IN Gypsum,                           ! Name
  Smooth,                                 ! Roughness
  0.01271,                                ! Thickness {m}
  0.16,                                   ! Conductivity {W/m-K}
  784.9,                                  ! Density {kg/m3}
  830,                                    ! Specific Heat {J/kg-K}
  0.9,                                    ! Thermal Absorptance
  0.92,                                   ! Solar Absorptance
  0.92;                                   ! Visible Absorptance

OS:ComponentCost:LineItem,
  {2b5b9ce9-8d07-40ca-9236-ce3333d9912e}, ! Handle
  189.1-2009 Nonres 3A Ext Wall Mass,     ! Name
  ,                                       ! Type
  Construction,                           ! Line Item Type
  189.1-2009 Nonres 3A Ext Wall Mass,     ! Item Name
  ,                                       ! Object End Use Key
  ,                                       ! Quantity {dimensionless}
  63.676,                                 ! Material Cost {$}
  CostPerArea;                            ! Material Cost Units

OS:ComponentData,
  {dc9d8e87-3828-4107-984e-6308b0417db2}, ! Handle
  Component Data 1,                       ! Name
  {41f76ca5-225b-4da9-a1c3-58a687f49d2b}, ! UUID
  {1b0433f4-7993-4346-87e9-605ace845d17}, ! Version UUID
  1363979826,                             ! Creation Timestamp
  1363979826,                             ! Version Timestamp
  {6f23b763-c24f-4156-9c29-f50ff49b318f}, ! Name of Object 1
  {a723ec8b-fba6-448d-92f4-a7193fb8ff5b}, ! Name of Object 2
  {5c77e7f4-478e-443e-8f3d-d19dc13f020f}, ! Name of Object 3
  {64487bd5-d6ce-4236-87b0-d45b051cf233}, ! Name of Object 4
  {e74010db-1ff8-47d2-b2db-5c3bff05e1c6}, ! Name of Object 5
  {2b5b9ce9-8d07-40ca-9236-ce3333d9912e}; ! Name of Object 6

