
OS:Version,
  {755aed9e-2ba3-4a6f-b15f-b5ee05b8fc14}, ! Handle
  0.9.3;                                  ! Version Identifier

OS:Material,
  {a2791c10-eb11-45f3-9cd2-6ffb0b659aa1}, ! Handle
  1/2IN Gypsum,                           ! Name
  Smooth,                                 ! Roughness
  0.01271,                                ! Thickness {m}
  0.16,                                   ! Conductivity {W/m-K}
  784.9,                                  ! Density {kg/m3}
  830,                                    ! Specific Heat {J/kg-K}
  0.9,                                    ! Thermal Absorptance
  0.92,                                   ! Solar Absorptance
  0.92;                                   ! Visible Absorptance

OS:ComponentCost:LineItem,
  {a5ab5c44-24ce-4712-985f-a13d4fd22da3}, ! Handle
  90.1-2001 Nonres B14 Ext Wall Wood-Framed and Other, ! Name
  ,                                       ! Type
  Construction,                           ! Line Item Type
  90.1-2001 Nonres B14 Ext Wall Wood-Framed and Other, ! Item Name
  ,                                       ! Object End Use Key
  ,                                       ! Quantity {dimensionless}
  73.056,                                 ! Material Cost {$}
  CostPerArea;                            ! Material Cost Units

OS:Material,
  {6f8440d5-289c-417e-a262-a8bd6a570b66}, ! Handle
  Wall Insulation [2],                    ! Name
  MediumRough,                            ! Roughness
  0.0746874,                              ! Thickness {m}
  0.045,                                  ! Conductivity {W/m-K}
  265,                                    ! Density {kg/m3}
  836.8,                                  ! Specific Heat {J/kg-K}
  0.9,                                    ! Thermal Absorptance
  0.7,                                    ! Solar Absorptance
  0.7;                                    ! Visible Absorptance

OS:Construction,
  {1814f049-e7a4-4b0a-ae1d-fd0247006e58}, ! Handle
  90.1-2001 Nonres B14 Ext Wall Wood-Framed and Other, ! Name
  ,                                       ! Surface Rendering Name
  {f19e82ee-4a62-4dc4-ab33-73090bd2aa91}, ! Layer 1
  {6f8440d5-289c-417e-a262-a8bd6a570b66}, ! Layer 2
  {a2791c10-eb11-45f3-9cd2-6ffb0b659aa1}; ! Layer 3

OS:Material,
  {f19e82ee-4a62-4dc4-ab33-73090bd2aa91}, ! Handle
  Wood Siding,                            ! Name
  MediumSmooth,                           ! Roughness
  0.01,                                   ! Thickness {m}
  0.11,                                   ! Conductivity {W/m-K}
  544.62,                                 ! Density {kg/m3}
  1210,                                   ! Specific Heat {J/kg-K}
  0.9,                                    ! Thermal Absorptance
  0.78,                                   ! Solar Absorptance
  0.78;                                   ! Visible Absorptance

