
OS:Version,
  {fa0d6230-dc66-49dd-baff-21b562f9c75b}, ! Handle
  0.9.3;                                  ! Version Identifier

OS:ComponentCost:LineItem,
  {8c0e65c2-248e-40ed-9e87-144f1c2448b6}, ! Handle
  90.1-2007 Res 5B Ext Wall Steel-Framed, ! Name
  ,                                       ! Type
  Construction,                           ! Line Item Type
  90.1-2007 Res 5B Ext Wall Steel-Framed, ! Item Name
  ,                                       ! Object End Use Key
  ,                                       ! Quantity {dimensionless}
  94.657,                                 ! Material Cost {$}
  CostPerArea;                            ! Material Cost Units

OS:Material,
  {4d8c3943-195a-42df-b611-8b00c4dea7e4}, ! Handle
  1/2IN Gypsum,                           ! Name
  Smooth,                                 ! Roughness
  0.01271,                                ! Thickness {m}
  0.16,                                   ! Conductivity {W/m-K}
  784.9,                                  ! Density {kg/m3}
  830,                                    ! Specific Heat {J/kg-K}
  0.9,                                    ! Thermal Absorptance
  0.92,                                   ! Solar Absorptance
  0.92;                                   ! Visible Absorptance

OS:Construction,
  {1a931e06-8c36-4171-97ec-9d7377cfc88c}, ! Handle
  90.1-2007 Res 5B Ext Wall Steel-Framed, ! Name
  ,                                       ! Surface Rendering Name
  {d50da278-9dc5-4490-a000-8ecfa96e22ca}, ! Layer 1
  {265f17bb-bd7c-4b47-a642-9dee2913743c}, ! Layer 2
  {4d8c3943-195a-42df-b611-8b00c4dea7e4}; ! Layer 3

OS:Material:NoMass,
  {d50da278-9dc5-4490-a000-8ecfa96e22ca}, ! Handle
  MAT-SHEATH,                             ! Name
  Rough,                                  ! Roughness
  0.36256,                                ! Thermal Resistance {m2-K/W}
  0.9,                                    ! Thermal Absorptance
  0.7,                                    ! Solar Absorptance
  0.7;                                    ! Visible Absorptance

OS:Material,
  {265f17bb-bd7c-4b47-a642-9dee2913743c}, ! Handle
  Wall Insulation [10],                   ! Name
  MediumRough,                            ! Roughness
  0.0971136,                              ! Thickness {m}
  0.045,                                  ! Conductivity {W/m-K}
  265,                                    ! Density {kg/m3}
  836.8,                                  ! Specific Heat {J/kg-K}
  0.9,                                    ! Thermal Absorptance
  0.7,                                    ! Solar Absorptance
  0.7;                                    ! Visible Absorptance

