
OS:Version,
  {5c38ad7d-44a6-42b2-9b6a-1bfda93ce259}, ! Handle
  0.9.3;                                  ! Version Identifier

OS:Construction,
  {8441deb8-a182-436d-999e-8d60f8a081a9}, ! Handle
  90.1-1999 Nonres B6 Ext Wall Wood-Framed and Other, ! Name
  ,                                       ! Surface Rendering Name
  {8f10ec81-c027-44b1-952e-97b7d039a4ea}, ! Layer 1
  {031e96d6-5544-43e9-b123-6e241cae63c0}, ! Layer 2
  {d9226adc-fbe7-44c0-aa88-afddbbf11c75}; ! Layer 3

OS:Material,
  {8f10ec81-c027-44b1-952e-97b7d039a4ea}, ! Handle
  Wood Siding,                            ! Name
  MediumSmooth,                           ! Roughness
  0.01,                                   ! Thickness {m}
  0.11,                                   ! Conductivity {W/m-K}
  544.62,                                 ! Density {kg/m3}
  1210,                                   ! Specific Heat {J/kg-K}
  0.9,                                    ! Thermal Absorptance
  0.78,                                   ! Solar Absorptance
  0.78;                                   ! Visible Absorptance

OS:Material,
  {031e96d6-5544-43e9-b123-6e241cae63c0}, ! Handle
  Wall Insulation [2],                    ! Name
  MediumRough,                            ! Roughness
  0.0746874,                              ! Thickness {m}
  0.045,                                  ! Conductivity {W/m-K}
  265,                                    ! Density {kg/m3}
  836.8,                                  ! Specific Heat {J/kg-K}
  0.9,                                    ! Thermal Absorptance
  0.7,                                    ! Solar Absorptance
  0.7;                                    ! Visible Absorptance

OS:Material,
  {d9226adc-fbe7-44c0-aa88-afddbbf11c75}, ! Handle
  1/2IN Gypsum,                           ! Name
  Smooth,                                 ! Roughness
  0.01271,                                ! Thickness {m}
  0.16,                                   ! Conductivity {W/m-K}
  784.9,                                  ! Density {kg/m3}
  830,                                    ! Specific Heat {J/kg-K}
  0.9,                                    ! Thermal Absorptance
  0.92,                                   ! Solar Absorptance
  0.92;                                   ! Visible Absorptance

OS:ComponentCost:LineItem,
  {2851f202-e24c-41b6-a5e9-04db07f40acf}, ! Handle
  90.1-1999 Nonres B6 Ext Wall Wood-Framed and Other, ! Name
  ,                                       ! Type
  Construction,                           ! Line Item Type
  90.1-1999 Nonres B6 Ext Wall Wood-Framed and Other, ! Item Name
  ,                                       ! Object End Use Key
  ,                                       ! Quantity {dimensionless}
  73.056,                                 ! Material Cost {$}
  CostPerArea;                            ! Material Cost Units

OS:ComponentData,
  {7e060e72-7ceb-4590-9ebe-a3a4470723c2}, ! Handle
  Component Data 1,                       ! Name
  {10e7d7ea-a344-4947-89fa-fbf379ad15f4}, ! UUID
  {66a7dbaa-7065-4842-a523-9bec2085432b}, ! Version UUID
  1363981062,                             ! Creation Timestamp
  1363981062,                             ! Version Timestamp
  {8441deb8-a182-436d-999e-8d60f8a081a9}, ! Name of Object 1
  {8f10ec81-c027-44b1-952e-97b7d039a4ea}, ! Name of Object 2
  {031e96d6-5544-43e9-b123-6e241cae63c0}, ! Name of Object 3
  {d9226adc-fbe7-44c0-aa88-afddbbf11c75}, ! Name of Object 4
  {2851f202-e24c-41b6-a5e9-04db07f40acf}; ! Name of Object 5

