
OS:Version,
  {a80ed9b7-9072-423f-bf89-f8b69ed767f1}, ! Handle
  0.9.3;                                  ! Version Identifier

OS:ComponentCost:LineItem,
  {afb2c737-1b6b-44fa-958a-94161281d9d9}, ! Handle
  90.1-1999 Nonres B6 Ext Wall Wood-Framed and Other, ! Name
  ,                                       ! Type
  Construction,                           ! Line Item Type
  90.1-1999 Nonres B6 Ext Wall Wood-Framed and Other, ! Item Name
  ,                                       ! Object End Use Key
  ,                                       ! Quantity {dimensionless}
  73.056,                                 ! Material Cost {$}
  CostPerArea;                            ! Material Cost Units

OS:Material,
  {b801a236-24c9-422b-8168-ab2f288b96ce}, ! Handle
  Wall Insulation [2],                    ! Name
  MediumRough,                            ! Roughness
  0.0746874,                              ! Thickness {m}
  0.045,                                  ! Conductivity {W/m-K}
  265,                                    ! Density {kg/m3}
  836.8,                                  ! Specific Heat {J/kg-K}
  0.9,                                    ! Thermal Absorptance
  0.7,                                    ! Solar Absorptance
  0.7;                                    ! Visible Absorptance

OS:Construction,
  {642a184f-f6e5-4f15-8ce0-864eb67de063}, ! Handle
  90.1-1999 Nonres B6 Ext Wall Wood-Framed and Other, ! Name
  ,                                       ! Surface Rendering Name
  {628f8f33-64d9-4856-af06-8e6096d81927}, ! Layer 1
  {b801a236-24c9-422b-8168-ab2f288b96ce}, ! Layer 2
  {86ccdf55-123b-4062-80d1-6b6183764c48}; ! Layer 3

OS:Material,
  {628f8f33-64d9-4856-af06-8e6096d81927}, ! Handle
  Wood Siding,                            ! Name
  MediumSmooth,                           ! Roughness
  0.01,                                   ! Thickness {m}
  0.11,                                   ! Conductivity {W/m-K}
  544.62,                                 ! Density {kg/m3}
  1210,                                   ! Specific Heat {J/kg-K}
  0.9,                                    ! Thermal Absorptance
  0.78,                                   ! Solar Absorptance
  0.78;                                   ! Visible Absorptance

OS:Material,
  {86ccdf55-123b-4062-80d1-6b6183764c48}, ! Handle
  1/2IN Gypsum,                           ! Name
  Smooth,                                 ! Roughness
  0.01271,                                ! Thickness {m}
  0.16,                                   ! Conductivity {W/m-K}
  784.9,                                  ! Density {kg/m3}
  830,                                    ! Specific Heat {J/kg-K}
  0.9,                                    ! Thermal Absorptance
  0.92,                                   ! Solar Absorptance
  0.92;                                   ! Visible Absorptance

