
OS:Version,
  {a5f9ca5f-d940-4b98-95eb-def548453df4}, ! Handle
  0.9.3;                                  ! Version Identifier

OS:WindowMaterial:Glazing,
  {03db6cb1-2540-4c7a-8613-50e83c79e245}, ! Handle
  Theoretical Glass [242],                ! Name
  SpectralAverage,                        ! Optical Data Type
  ,                                       ! Window Glass Spectral Data Set Name
  0.003,                                  ! Thickness {m}
  0.381632,                               ! Solar Transmittance at Normal Incidence
  0.568368,                               ! Front Side Solar Reflectance at Normal Incidence
  0.568368,                               ! Back Side Solar Reflectance at Normal Incidence
  0.549983,                               ! Visible Transmittance at Normal Incidence
  0.400017,                               ! Front Side Visible Reflectance at Normal Incidence
  0.400017,                               ! Back Side Visible Reflectance at Normal Incidence
  0,                                      ! Infrared Transmittance at Normal Incidence
  0.9,                                    ! Front Side Infrared Hemispherical Emissivity
  0.9,                                    ! Back Side Infrared Hemispherical Emissivity
  0.0230964;                              ! Conductivity {W/m-K}

OS:ComponentCost:LineItem,
  {bad62aa4-93f4-4297-b310-d7d979f85b40}, ! Handle
  AEDG SHC Nonres 8A Skylight Glass Skylight with Curb, ! Name
  ,                                       ! Type
  Construction,                           ! Line Item Type
  AEDG SHC Nonres 8A Skylight Glass Skylight with Curb, ! Item Name
  ,                                       ! Object End Use Key
  ,                                       ! Quantity {dimensionless}
  0,                                      ! Material Cost {$}
  CostPerArea;                            ! Material Cost Units

OS:Construction,
  {825998bf-95de-4fe6-b6be-50af6822d633}, ! Handle
  AEDG SHC Nonres 8A Skylight Glass Skylight with Curb, ! Name
  ,                                       ! Surface Rendering Name
  {03db6cb1-2540-4c7a-8613-50e83c79e245}; ! Layer 1

