
OS:Version,
  {31f85f39-9552-416c-b623-e1518509bf7a}, !- Handle
  1.0.6;                                  !- Version Identifier

OS:Construction,
  {fe21c168-326f-4d8f-8878-f90e96d6ed35}, !- Handle
  189.1-2011 NONRES 1A METAL FRAMING ENTRANCE DOOR, !- Name
  ,                                       !- Surface Rendering Name
  {a16b83f5-cb6b-435e-9a44-44000b57ec18}; !- Layer 1

OS:WindowMaterial:Glazing,
  {a16b83f5-cb6b-435e-9a44-44000b57ec18}, !- Handle
  189.1-2011 NONRES 1A METAL FRAMING ENTRANCE DOOR THEORETICAL GLAZING, !- Name
  SpectralAverage,                        !- Optical Data Type
  ,                                       !- Window Glass Spectral Data Set Name
  0.002,                                  !- Thickness {m}
  0.10958,                                !- Solar Transmittance at Normal Incidence
  0.41418,                                !- Front Side Solar Reflectance at Normal Incidence
  0.41418,                                !- Back Side Solar Reflectance at Normal Incidence
  0.10958,                                !- Visible Transmittance at Normal Incidence
  0.41418,                                !- Front Side Visible Reflectance at Normal Incidence
  0.41418,                                !- Back Side Visible Reflectance at Normal Incidence
  0,                                      !- Infrared Transmittance at Normal Incidence
  0.84,                                   !- Front Side Infrared Hemispherical Emissivity
  0.84,                                   !- Back Side Infrared Hemispherical Emissivity
  0.39122,                                !- Conductivity {W/m-K}
  1,                                      !- Dirt Correction Factor for Solar and Visible Transmittance
  No;                                     !- Solar Diffusing

OS:ComponentData,
  {82c4650f-0e21-447d-b559-e02e07483912}, !- Handle
  Component Data 1,                       !- Name
  {f3a35d69-a07c-4af2-8209-4d02c43d601f}, !- UUID
  {182d4a11-0b8b-4d61-a4e6-44e22c88e023}, !- Version UUID
  1380911254,                             !- Creation Timestamp
  1380911254,                             !- Version Timestamp
  {fe21c168-326f-4d8f-8878-f90e96d6ed35}, !- Name of Object 1
  {a16b83f5-cb6b-435e-9a44-44000b57ec18}; !- Name of Object 2

