
OS:Version,
  {627d9a3c-6adb-4fd3-b68a-7c4c5a9bcde9}, !- Handle
  1.0.6;                                  !- Version Identifier

OS:WindowMaterial:Glazing,
  {20341eba-f556-49aa-844f-a37e3c07a390}, !- Handle
  189.1-2011 NONRES 1A METAL FRAMING ENTRANCE DOOR THEORETICAL GLAZING, !- Name
  SpectralAverage,                        !- Optical Data Type
  ,                                       !- Window Glass Spectral Data Set Name
  0.002,                                  !- Thickness {m}
  0.10958,                                !- Solar Transmittance at Normal Incidence
  0.41418,                                !- Front Side Solar Reflectance at Normal Incidence
  0.41418,                                !- Back Side Solar Reflectance at Normal Incidence
  0.10958,                                !- Visible Transmittance at Normal Incidence
  0.41418,                                !- Front Side Visible Reflectance at Normal Incidence
  0.41418,                                !- Back Side Visible Reflectance at Normal Incidence
  0,                                      !- Infrared Transmittance at Normal Incidence
  0.84,                                   !- Front Side Infrared Hemispherical Emissivity
  0.84,                                   !- Back Side Infrared Hemispherical Emissivity
  0.39122,                                !- Conductivity {W/m-K}
  1,                                      !- Dirt Correction Factor for Solar and Visible Transmittance
  No;                                     !- Solar Diffusing

OS:Construction,
  {979d5d7a-7953-4d1f-be40-410892226c6b}, !- Handle
  189.1-2011 NONRES 1A METAL FRAMING ENTRANCE DOOR, !- Name
  ,                                       !- Surface Rendering Name
  {20341eba-f556-49aa-844f-a37e3c07a390}; !- Layer 1

