
OS:Version,
  {a5a67960-910f-4336-a919-41abcc027a97}, ! Handle
  0.9.3;                                  ! Version Identifier

OS:Construction,
  {454402e4-fb56-4055-a405-f27b76f7ccfa}, ! Handle
  90.1-2007 Nonres 5B Ext Slab Unheated - 4in Slab without Carpet, ! Name
  ,                                       ! Surface Rendering Name
  {a8a4d6e6-3fbb-4fd4-8522-4396e5b1633c}; ! Layer 1

OS:Material,
  {a8a4d6e6-3fbb-4fd4-8522-4396e5b1633c}, ! Handle
  MAT-CC05 4 HW CONCRETE,                 ! Name
  Rough,                                  ! Roughness
  0.1016,                                 ! Thickness {m}
  1.311,                                  ! Conductivity {W/m-K}
  2240,                                   ! Density {kg/m3}
  836.8,                                  ! Specific Heat {J/kg-K}
  0.9,                                    ! Thermal Absorptance
  0.7,                                    ! Solar Absorptance
  0.7;                                    ! Visible Absorptance

OS:ComponentCost:LineItem,
  {1222ad62-15f0-48d9-b398-229a7ab7aefa}, ! Handle
  90.1-2007 Nonres 5B Ext Slab Unheated - 4in Slab without Carpet, ! Name
  ,                                       ! Type
  Construction,                           ! Line Item Type
  90.1-2007 Nonres 5B Ext Slab Unheated - 4in Slab without Carpet, ! Item Name
  ,                                       ! Object End Use Key
  ,                                       ! Quantity {dimensionless}
  45.52,                                  ! Material Cost {$}
  CostPerArea;                            ! Material Cost Units

