
OS:Version,
  {1aabacee-4d08-41f9-b980-dab52611f605}, ! Handle
  0.9.3;                                  ! Version Identifier

OS:Construction,
  {7b859a95-69b8-4f5d-9482-a6c692d450a1}, ! Handle
  189.1-2009 Nonres 6B Window Metal framing curtainwall-storefront, ! Name
  ,                                       ! Surface Rendering Name
  {262cf8d7-3493-42b1-a5fd-b13fd3ce9056}; ! Layer 1

OS:WindowMaterial:Glazing,
  {262cf8d7-3493-42b1-a5fd-b13fd3ce9056}, ! Handle
  Theoretical Glass [214],                ! Name
  SpectralAverage,                        ! Optical Data Type
  ,                                       ! Window Glass Spectral Data Set Name
  0.003,                                  ! Thickness {m}
  0.379437,                               ! Solar Transmittance at Normal Incidence
  0.570563,                               ! Front Side Solar Reflectance at Normal Incidence
  0.570563,                               ! Back Side Solar Reflectance at Normal Incidence
  0.507883,                               ! Visible Transmittance at Normal Incidence
  0.442117,                               ! Front Side Visible Reflectance at Normal Incidence
  0.442117,                               ! Back Side Visible Reflectance at Normal Incidence
  0,                                      ! Infrared Transmittance at Normal Incidence
  0.9,                                    ! Front Side Infrared Hemispherical Emissivity
  0.9,                                    ! Back Side Infrared Hemispherical Emissivity
  0.00893994;                             ! Conductivity {W/m-K}

OS:ComponentCost:LineItem,
  {50996a11-1b48-438a-a26e-724a57aaf648}, ! Handle
  189.1-2009 Nonres 6B Window Metal framing curtainwall-storefront, ! Name
  ,                                       ! Type
  Construction,                           ! Line Item Type
  189.1-2009 Nonres 6B Window Metal framing curtainwall-storefront, ! Item Name
  ,                                       ! Object End Use Key
  ,                                       ! Quantity {dimensionless}
  512.02,                                 ! Material Cost {$}
  CostPerArea;                            ! Material Cost Units

OS:ComponentData,
  {ea7c35de-6aba-4dcf-8631-3ce3f79398b0}, ! Handle
  Component Data 1,                       ! Name
  {57d79e34-9d1f-4996-86c4-19696eb83408}, ! UUID
  {b7ceca01-eed8-43f3-9082-d3f077e9b7bf}, ! Version UUID
  1363980949,                             ! Creation Timestamp
  1363980949,                             ! Version Timestamp
  {7b859a95-69b8-4f5d-9482-a6c692d450a1}, ! Name of Object 1
  {262cf8d7-3493-42b1-a5fd-b13fd3ce9056}, ! Name of Object 2
  {50996a11-1b48-438a-a26e-724a57aaf648}; ! Name of Object 3

