
OS:Version,
  {99d0862e-df65-4d50-8172-109bae657a0e}, ! Handle
  0.9.3;                                  ! Version Identifier

OS:WindowMaterial:Glazing,
  {6378e3d4-b5e0-4368-9266-75de0d457d9e}, ! Handle
  Theoretical Glass [214],                ! Name
  SpectralAverage,                        ! Optical Data Type
  ,                                       ! Window Glass Spectral Data Set Name
  0.003,                                  ! Thickness {m}
  0.379437,                               ! Solar Transmittance at Normal Incidence
  0.570563,                               ! Front Side Solar Reflectance at Normal Incidence
  0.570563,                               ! Back Side Solar Reflectance at Normal Incidence
  0.507883,                               ! Visible Transmittance at Normal Incidence
  0.442117,                               ! Front Side Visible Reflectance at Normal Incidence
  0.442117,                               ! Back Side Visible Reflectance at Normal Incidence
  0,                                      ! Infrared Transmittance at Normal Incidence
  0.9,                                    ! Front Side Infrared Hemispherical Emissivity
  0.9,                                    ! Back Side Infrared Hemispherical Emissivity
  0.00893994;                             ! Conductivity {W/m-K}

OS:Construction,
  {0f16b8a7-d10c-4393-a7ff-a488e4ac3d43}, ! Handle
  189.1-2009 Nonres 6B Window Metal framing curtainwall-storefront, ! Name
  ,                                       ! Surface Rendering Name
  {6378e3d4-b5e0-4368-9266-75de0d457d9e}; ! Layer 1

OS:ComponentCost:LineItem,
  {c9fadbd7-db92-49e5-96ae-020432e40eae}, ! Handle
  189.1-2009 Nonres 6B Window Metal framing curtainwall-storefront, ! Name
  ,                                       ! Type
  Construction,                           ! Line Item Type
  189.1-2009 Nonres 6B Window Metal framing curtainwall-storefront, ! Item Name
  ,                                       ! Object End Use Key
  ,                                       ! Quantity {dimensionless}
  512.02,                                 ! Material Cost {$}
  CostPerArea;                            ! Material Cost Units

