
OS:Version,
  {5cfeb8de-ca2d-4386-b407-ba20411b2ac8}, ! Handle
  0.9.3;                                  ! Version Identifier

OS:Construction,
  {e63338d6-9374-4a4f-8cd6-12adb52833c8}, ! Handle
  90.1-2001 Nonres B7 Ext Slab Unheated - 8in Slab without Carpet, ! Name
  ,                                       ! Surface Rendering Name
  {0e2d319c-3970-43c6-b389-a0acca2a8ec7}; ! Layer 1

OS:Material,
  {0e2d319c-3970-43c6-b389-a0acca2a8ec7}, ! Handle
  MAT-CC05 8 HW CONCRETE,                 ! Name
  Rough,                                  ! Roughness
  0.20321,                                ! Thickness {m}
  1.311,                                  ! Conductivity {W/m-K}
  2240,                                   ! Density {kg/m3}
  836.8,                                  ! Specific Heat {J/kg-K}
  0.9,                                    ! Thermal Absorptance
  0.7,                                    ! Solar Absorptance
  0.7;                                    ! Visible Absorptance

OS:ComponentCost:LineItem,
  {734efe0b-8b61-4474-a800-4fcc45cb1bc4}, ! Handle
  90.1-2001 Nonres B7 Ext Slab Unheated - 8in Slab without Carpet, ! Name
  ,                                       ! Type
  Construction,                           ! Line Item Type
  90.1-2001 Nonres B7 Ext Slab Unheated - 8in Slab without Carpet, ! Item Name
  ,                                       ! Object End Use Key
  ,                                       ! Quantity {dimensionless}
  45.52,                                  ! Material Cost {$}
  CostPerArea;                            ! Material Cost Units

OS:ComponentData,
  {46bded5b-4798-41d6-8a84-322587b634f5}, ! Handle
  Component Data 1,                       ! Name
  {51870f59-9acb-4047-a8a7-4fffe50325a7}, ! UUID
  {35840804-bc05-4092-8289-2e8bb06b0e4e}, ! Version UUID
  1363981323,                             ! Creation Timestamp
  1363981323,                             ! Version Timestamp
  {e63338d6-9374-4a4f-8cd6-12adb52833c8}, ! Name of Object 1
  {0e2d319c-3970-43c6-b389-a0acca2a8ec7}, ! Name of Object 2
  {734efe0b-8b61-4474-a800-4fcc45cb1bc4}; ! Name of Object 3

