
OS:Version,
  {ff1d2ce6-dfa6-4d6a-8457-23f7a48bd66a}, ! Handle
  0.9.3;                                  ! Version Identifier

OS:Material,
  {4500b5ef-90fe-48d3-8def-e0aa12e281f3}, ! Handle
  Wood Shingles [1],                      ! Name
  VeryRough,                              ! Roughness
  0.0178,                                 ! Thickness {m}
  0.115,                                  ! Conductivity {W/m-K}
  513,                                    ! Density {kg/m3}
  1255,                                   ! Specific Heat {J/kg-K}
  0.9,                                    ! Thermal Absorptance
  0.78,                                   ! Solar Absorptance
  0.85;                                   ! Visible Absorptance

OS:ComponentCost:LineItem,
  {a3ee24f2-d103-4e98-8f37-76009170c632}, ! Handle
  Title 24-2008 Nonres 9 Roof Attic and Other, ! Name
  ,                                       ! Type
  Construction,                           ! Line Item Type
  Title 24-2008 Nonres 9 Roof Attic and Other, ! Item Name
  ,                                       ! Object End Use Key
  ,                                       ! Quantity {dimensionless}
  33.009,                                 ! Material Cost {$}
  CostPerArea;                            ! Material Cost Units

OS:Construction,
  {6e8452d5-2d04-469f-9e94-6110cad4ba3e}, ! Handle
  Title 24-2008 Nonres 9 Roof Attic and Other, ! Name
  ,                                       ! Surface Rendering Name
  {4500b5ef-90fe-48d3-8def-e0aa12e281f3}, ! Layer 1
  {82252bee-9927-4aee-9414-8eff11393cb7}, ! Layer 2
  {c4dabb70-fad0-4ad2-9455-4ad5f8fed8dd}, ! Layer 3
  {4b086da7-3559-41bf-bbf5-2215615595bf}; ! Layer 4

OS:Material,
  {82252bee-9927-4aee-9414-8eff11393cb7}, ! Handle
  1IN Wood Decking,                       ! Name
  MediumSmooth,                           ! Roughness
  0.0254,                                 ! Thickness {m}
  0.1211,                                 ! Conductivity {W/m-K}
  593,                                    ! Density {kg/m3}
  2510,                                   ! Specific Heat {J/kg-K}
  0.9,                                    ! Thermal Absorptance
  0.78,                                   ! Solar Absorptance
  0.78;                                   ! Visible Absorptance

OS:Material,
  {c4dabb70-fad0-4ad2-9455-4ad5f8fed8dd}, ! Handle
  Roof Insulation [106],                  ! Name
  MediumRough,                            ! Roughness
  0.190659,                               ! Thickness {m}
  0.049,                                  ! Conductivity {W/m-K}
  265,                                    ! Density {kg/m3}
  836.8,                                  ! Specific Heat {J/kg-K}
  0.9,                                    ! Thermal Absorptance
  0.7,                                    ! Solar Absorptance
  0.7;                                    ! Visible Absorptance

OS:Material,
  {4b086da7-3559-41bf-bbf5-2215615595bf}, ! Handle
  1/2IN Gypsum,                           ! Name
  Smooth,                                 ! Roughness
  0.01271,                                ! Thickness {m}
  0.16,                                   ! Conductivity {W/m-K}
  784.9,                                  ! Density {kg/m3}
  830,                                    ! Specific Heat {J/kg-K}
  0.9,                                    ! Thermal Absorptance
  0.92,                                   ! Solar Absorptance
  0.92;                                   ! Visible Absorptance

