
OS:Version,
  {b36fd65c-5457-4cdd-9613-cd93c844c2b5}, ! Handle
  0.9.3;                                  ! Version Identifier

OS:Construction,
  {0d3d7c10-f210-4671-9377-9f5217e7d20f}, ! Handle
  90.1-2001 Res B12 Ext Wall Metal Building, ! Name
  ,                                       ! Surface Rendering Name
  {030c864e-5963-44cf-b681-10a3545c452f}, ! Layer 1
  {0f06f220-c440-433b-b5ea-d47d6aaf520f}, ! Layer 2
  {c0c23319-3c00-4d42-85a3-75f9e141a365}; ! Layer 3

OS:Material,
  {030c864e-5963-44cf-b681-10a3545c452f}, ! Handle
  Metal Siding,                           ! Name
  Smooth,                                 ! Roughness
  0.0015,                                 ! Thickness {m}
  44.96,                                  ! Conductivity {W/m-K}
  7688.86,                                ! Density {kg/m3}
  410,                                    ! Specific Heat {J/kg-K}
  0.9,                                    ! Thermal Absorptance
  0.2,                                    ! Solar Absorptance
  0.2;                                    ! Visible Absorptance

OS:Material,
  {0f06f220-c440-433b-b5ea-d47d6aaf520f}, ! Handle
  Wall Insulation,                        ! Name
  MediumRough,                            ! Roughness
  0.0598725,                              ! Thickness {m}
  0.045,                                  ! Conductivity {W/m-K}
  265,                                    ! Density {kg/m3}
  836.8,                                  ! Specific Heat {J/kg-K}
  0.9,                                    ! Thermal Absorptance
  0.7,                                    ! Solar Absorptance
  0.7;                                    ! Visible Absorptance

OS:Material,
  {c0c23319-3c00-4d42-85a3-75f9e141a365}, ! Handle
  1/2IN Gypsum,                           ! Name
  Smooth,                                 ! Roughness
  0.01271,                                ! Thickness {m}
  0.16,                                   ! Conductivity {W/m-K}
  784.9,                                  ! Density {kg/m3}
  830,                                    ! Specific Heat {J/kg-K}
  0.9,                                    ! Thermal Absorptance
  0.92,                                   ! Solar Absorptance
  0.92;                                   ! Visible Absorptance

OS:ComponentCost:LineItem,
  {d5b3e9dc-a25e-4efd-bc62-304cc51ff0f2}, ! Handle
  90.1-2001 Res B12 Ext Wall Metal Building, ! Name
  ,                                       ! Type
  Construction,                           ! Line Item Type
  90.1-2001 Res B12 Ext Wall Metal Building, ! Item Name
  ,                                       ! Object End Use Key
  ,                                       ! Quantity {dimensionless}
  98.78,                                  ! Material Cost {$}
  CostPerArea;                            ! Material Cost Units

OS:ComponentData,
  {7eee8975-9569-4bda-9942-92b70d69012d}, ! Handle
  Component Data 1,                       ! Name
  {1a8607c0-9ab9-427f-8bcc-48007ec04dd6}, ! UUID
  {cc9f84d0-6ec2-4cfd-ad03-28569dece6f5}, ! Version UUID
  1363981515,                             ! Creation Timestamp
  1363981515,                             ! Version Timestamp
  {0d3d7c10-f210-4671-9377-9f5217e7d20f}, ! Name of Object 1
  {030c864e-5963-44cf-b681-10a3545c452f}, ! Name of Object 2
  {0f06f220-c440-433b-b5ea-d47d6aaf520f}, ! Name of Object 3
  {c0c23319-3c00-4d42-85a3-75f9e141a365}, ! Name of Object 4
  {d5b3e9dc-a25e-4efd-bc62-304cc51ff0f2}; ! Name of Object 5

