
OS:Version,
  {f1e13cdf-9510-4a32-8e68-d1fdd31148a5}, ! Handle
  0.9.3;                                  ! Version Identifier

OS:Material,
  {7e8e26d0-1467-431b-9b75-eaa5df8fcb67}, ! Handle
  Wall Insulation,                        ! Name
  MediumRough,                            ! Roughness
  0.0598725,                              ! Thickness {m}
  0.045,                                  ! Conductivity {W/m-K}
  265,                                    ! Density {kg/m3}
  836.8,                                  ! Specific Heat {J/kg-K}
  0.9,                                    ! Thermal Absorptance
  0.7,                                    ! Solar Absorptance
  0.7;                                    ! Visible Absorptance

OS:Material,
  {10e6fb74-e9d6-4649-b093-e11ae4177c91}, ! Handle
  Metal Siding,                           ! Name
  Smooth,                                 ! Roughness
  0.0015,                                 ! Thickness {m}
  44.96,                                  ! Conductivity {W/m-K}
  7688.86,                                ! Density {kg/m3}
  410,                                    ! Specific Heat {J/kg-K}
  0.9,                                    ! Thermal Absorptance
  0.2,                                    ! Solar Absorptance
  0.2;                                    ! Visible Absorptance

OS:ComponentCost:LineItem,
  {8b7bb89a-1a7d-4519-936d-a50b890622ad}, ! Handle
  90.1-2001 Res B12 Ext Wall Metal Building, ! Name
  ,                                       ! Type
  Construction,                           ! Line Item Type
  90.1-2001 Res B12 Ext Wall Metal Building, ! Item Name
  ,                                       ! Object End Use Key
  ,                                       ! Quantity {dimensionless}
  98.78,                                  ! Material Cost {$}
  CostPerArea;                            ! Material Cost Units

OS:Material,
  {2e3560e8-deea-4d61-a5d4-6799006f29c6}, ! Handle
  1/2IN Gypsum,                           ! Name
  Smooth,                                 ! Roughness
  0.01271,                                ! Thickness {m}
  0.16,                                   ! Conductivity {W/m-K}
  784.9,                                  ! Density {kg/m3}
  830,                                    ! Specific Heat {J/kg-K}
  0.9,                                    ! Thermal Absorptance
  0.92,                                   ! Solar Absorptance
  0.92;                                   ! Visible Absorptance

OS:Construction,
  {1a56ad75-ae1d-421f-b416-74b3df5121c0}, ! Handle
  90.1-2001 Res B12 Ext Wall Metal Building, ! Name
  ,                                       ! Surface Rendering Name
  {10e6fb74-e9d6-4649-b093-e11ae4177c91}, ! Layer 1
  {7e8e26d0-1467-431b-9b75-eaa5df8fcb67}, ! Layer 2
  {2e3560e8-deea-4d61-a5d4-6799006f29c6}; ! Layer 3

