
OS:Version,
  {55a42bed-8c40-4627-ae34-5bcbb3de4e4f}, ! Handle
  0.9.3;                                  ! Version Identifier

OS:Construction,
  {826767cd-d03a-4525-a29b-70d3199f7fa5}, ! Handle
  90.1-1999 Nonres B26 Roof Metal Building, ! Name
  ,                                       ! Surface Rendering Name
  {c4893205-e401-4ca7-ba43-0b841ac6e9ef}, ! Layer 1
  {82a09c8e-69e8-4808-8d66-21499e7c7006}; ! Layer 2

OS:Material,
  {c4893205-e401-4ca7-ba43-0b841ac6e9ef}, ! Handle
  Metal Roofing,                          ! Name
  MediumSmooth,                           ! Roughness
  0.001524,                               ! Thickness {m}
  45.006,                                 ! Conductivity {W/m-K}
  7680,                                   ! Density {kg/m3}
  418.4,                                  ! Specific Heat {J/kg-K}
  0.9,                                    ! Thermal Absorptance
  0.7,                                    ! Solar Absorptance
  0.3;                                    ! Visible Absorptance

OS:Material,
  {82a09c8e-69e8-4808-8d66-21499e7c7006}, ! Handle
  Roof Insulation [10],                   ! Name
  MediumRough,                            ! Roughness
  0.174366,                               ! Thickness {m}
  0.049,                                  ! Conductivity {W/m-K}
  265,                                    ! Density {kg/m3}
  836.8,                                  ! Specific Heat {J/kg-K}
  0.9,                                    ! Thermal Absorptance
  0.7,                                    ! Solar Absorptance
  0.7;                                    ! Visible Absorptance

OS:ComponentCost:LineItem,
  {134a9546-2a2b-46c2-9f4a-92713765e428}, ! Handle
  90.1-1999 Nonres B26 Roof Metal Building, ! Name
  ,                                       ! Type
  Construction,                           ! Line Item Type
  90.1-1999 Nonres B26 Roof Metal Building, ! Item Name
  ,                                       ! Object End Use Key
  ,                                       ! Quantity {dimensionless}
  42.974,                                 ! Material Cost {$}
  CostPerArea;                            ! Material Cost Units

OS:ComponentData,
  {7660ba2c-ab44-497f-9b02-302acba9e9d7}, ! Handle
  Component Data 1,                       ! Name
  {eb0a88be-a52b-4582-a7c1-15eff626013d}, ! UUID
  {93bdd6b4-bf34-4f64-8ef9-f81347efdb58}, ! Version UUID
  1363981157,                             ! Creation Timestamp
  1363981157,                             ! Version Timestamp
  {826767cd-d03a-4525-a29b-70d3199f7fa5}, ! Name of Object 1
  {c4893205-e401-4ca7-ba43-0b841ac6e9ef}, ! Name of Object 2
  {82a09c8e-69e8-4808-8d66-21499e7c7006}, ! Name of Object 3
  {134a9546-2a2b-46c2-9f4a-92713765e428}; ! Name of Object 4

