
OS:Version,
  {38c22654-746a-45e7-83a0-f20fcc8a1121}, ! Handle
  0.9.3;                                  ! Version Identifier

OS:ComponentCost:LineItem,
  {514aebb0-2830-4326-b570-a9c6e04e07ff}, ! Handle
  90.1-1999 Nonres B26 Roof Metal Building, ! Name
  ,                                       ! Type
  Construction,                           ! Line Item Type
  90.1-1999 Nonres B26 Roof Metal Building, ! Item Name
  ,                                       ! Object End Use Key
  ,                                       ! Quantity {dimensionless}
  42.974,                                 ! Material Cost {$}
  CostPerArea;                            ! Material Cost Units

OS:Construction,
  {a19be41e-61b9-40ad-bfd1-3d3bfe40ccdc}, ! Handle
  90.1-1999 Nonres B26 Roof Metal Building, ! Name
  ,                                       ! Surface Rendering Name
  {c8569b59-107b-4f8e-9884-49320e02e08c}, ! Layer 1
  {0f6ac8cf-febc-4abb-b680-a18087d4a21b}; ! Layer 2

OS:Material,
  {c8569b59-107b-4f8e-9884-49320e02e08c}, ! Handle
  Metal Roofing,                          ! Name
  MediumSmooth,                           ! Roughness
  0.001524,                               ! Thickness {m}
  45.006,                                 ! Conductivity {W/m-K}
  7680,                                   ! Density {kg/m3}
  418.4,                                  ! Specific Heat {J/kg-K}
  0.9,                                    ! Thermal Absorptance
  0.7,                                    ! Solar Absorptance
  0.3;                                    ! Visible Absorptance

OS:Material,
  {0f6ac8cf-febc-4abb-b680-a18087d4a21b}, ! Handle
  Roof Insulation [10],                   ! Name
  MediumRough,                            ! Roughness
  0.174366,                               ! Thickness {m}
  0.049,                                  ! Conductivity {W/m-K}
  265,                                    ! Density {kg/m3}
  836.8,                                  ! Specific Heat {J/kg-K}
  0.9,                                    ! Thermal Absorptance
  0.7,                                    ! Solar Absorptance
  0.7;                                    ! Visible Absorptance

