
OS:Version,
  {b890e594-6799-4495-ad26-d80dc7051804}, ! Handle
  0.9.3;                                  ! Version Identifier

OS:Material,
  {95e36bc8-32df-4eb1-9a9e-da03867dd3bf}, ! Handle
  Roof Membrane [2],                      ! Name
  VeryRough,                              ! Roughness
  0.0095,                                 ! Thickness {m}
  0.16,                                   ! Conductivity {W/m-K}
  1121.29,                                ! Density {kg/m3}
  1460,                                   ! Specific Heat {J/kg-K}
  0.9,                                    ! Thermal Absorptance
  0.7,                                    ! Solar Absorptance
  0.85;                                   ! Visible Absorptance

OS:Material,
  {ad92377e-eec8-452c-a80b-a3262601fa81}, ! Handle
  Roof Insulation [31],                   ! Name
  MediumRough,                            ! Roughness
  0.209546,                               ! Thickness {m}
  0.049,                                  ! Conductivity {W/m-K}
  265,                                    ! Density {kg/m3}
  836.8,                                  ! Specific Heat {J/kg-K}
  0.9,                                    ! Thermal Absorptance
  0.7,                                    ! Solar Absorptance
  0.7;                                    ! Visible Absorptance

OS:Construction,
  {6b3de3f0-5535-45f4-bd96-3460c0dc4927}, ! Handle
  Title 24-2008 Nonres 9 Roof IEAD,       ! Name
  ,                                       ! Surface Rendering Name
  {95e36bc8-32df-4eb1-9a9e-da03867dd3bf}, ! Layer 1
  {ad92377e-eec8-452c-a80b-a3262601fa81}, ! Layer 2
  {a434b4fc-2f0f-480e-8206-cb89ed24a825}; ! Layer 3

OS:Material,
  {a434b4fc-2f0f-480e-8206-cb89ed24a825}, ! Handle
  Metal Decking,                          ! Name
  MediumSmooth,                           ! Roughness
  0.001524,                               ! Thickness {m}
  45.006,                                 ! Conductivity {W/m-K}
  7680,                                   ! Density {kg/m3}
  418.4,                                  ! Specific Heat {J/kg-K}
  0.9,                                    ! Thermal Absorptance
  0.7,                                    ! Solar Absorptance
  0.3;                                    ! Visible Absorptance

OS:ComponentCost:LineItem,
  {5db56335-8ec6-4424-9873-f544b5f7316f}, ! Handle
  Title 24-2008 Nonres 9 Roof IEAD,       ! Name
  ,                                       ! Type
  Construction,                           ! Line Item Type
  Title 24-2008 Nonres 9 Roof IEAD,       ! Item Name
  ,                                       ! Object End Use Key
  ,                                       ! Quantity {dimensionless}
  56.579,                                 ! Material Cost {$}
  CostPerArea;                            ! Material Cost Units

