
OS:Version,
  {2b2a87ee-db70-46ed-bb4d-f0c1b154554b}, ! Handle
  0.9.3;                                  ! Version Identifier

OS:WindowMaterial:Glazing,
  {a6ee0530-5e6f-4e3c-a086-b55ffd11ccfc}, ! Handle
  Theoretical Glass [418],                ! Name
  SpectralAverage,                        ! Optical Data Type
  ,                                       ! Window Glass Spectral Data Set Name
  0.003,                                  ! Thickness {m}
  0.333025,                               ! Solar Transmittance at Normal Incidence
  0.616975,                               ! Front Side Solar Reflectance at Normal Incidence
  0.616975,                               ! Back Side Solar Reflectance at Normal Incidence
  0.390045,                               ! Visible Transmittance at Normal Incidence
  0.559955,                               ! Front Side Visible Reflectance at Normal Incidence
  0.559955,                               ! Back Side Visible Reflectance at Normal Incidence
  0,                                      ! Infrared Transmittance at Normal Incidence
  0.9,                                    ! Front Side Infrared Hemispherical Emissivity
  0.9,                                    ! Back Side Infrared Hemispherical Emissivity
  0.0213046;                              ! Conductivity {W/m-K}

OS:ComponentCost:LineItem,
  {54882637-3ff8-48fc-9869-8b0ffcb6fc11}, ! Handle
  90.1 Windows Window Fixed 2118 Mtl-GrnSbe-Std-Clr, ! Name
  ,                                       ! Type
  Construction,                           ! Line Item Type
  90.1 Windows Window Fixed 2118 Mtl-GrnSbe-Std-Clr, ! Item Name
  ,                                       ! Object End Use Key
  ,                                       ! Quantity {dimensionless}
  0,                                      ! Material Cost {$}
  CostPerArea;                            ! Material Cost Units

OS:Construction,
  {4ade1d74-5a0c-41e2-80a2-0eb69e1e1820}, ! Handle
  90.1 Windows Window Fixed 2118 Mtl-GrnSbe-Std-Clr, ! Name
  ,                                       ! Surface Rendering Name
  {a6ee0530-5e6f-4e3c-a086-b55ffd11ccfc}; ! Layer 1

