
OS:Version,
  {0c122704-2629-4cdd-be73-d1aee155521b}, ! Handle
  0.9.3;                                  ! Version Identifier

OS:Material,
  {72edf720-b81e-488d-8674-8998d9e05e4c}, ! Handle
  1/2IN Gypsum,                           ! Name
  Smooth,                                 ! Roughness
  0.01271,                                ! Thickness {m}
  0.16,                                   ! Conductivity {W/m-K}
  784.9,                                  ! Density {kg/m3}
  830,                                    ! Specific Heat {J/kg-K}
  0.9,                                    ! Thermal Absorptance
  0.92,                                   ! Solar Absorptance
  0.92;                                   ! Visible Absorptance

OS:Construction,
  {305bdcca-7165-4b55-a854-87e1beb705ef}, ! Handle
  AEDG-SmOffice 1A Ext Wall Spandrel,     ! Name
  ,                                       ! Surface Rendering Name
  {00c8f094-202a-437b-880e-bba2c58fe27d}, ! Layer 1
  {bcaecf11-f81e-4d35-859c-37287022ad3b}, ! Layer 2
  {72edf720-b81e-488d-8674-8998d9e05e4c}; ! Layer 3

OS:Material,
  {00c8f094-202a-437b-880e-bba2c58fe27d}, ! Handle
  SpandrelGlass,                          ! Name
  Smooth,                                 ! Roughness
  0.007,                                  ! Thickness {m}
  45.31,                                  ! Conductivity {W/m-K}
  7833.02,                                ! Density {kg/m3}
  500,                                    ! Specific Heat {J/kg-K}
  0.9,                                    ! Thermal Absorptance
  0.23,                                   ! Solar Absorptance
  0.23;                                   ! Visible Absorptance

OS:Material,
  {bcaecf11-f81e-4d35-859c-37287022ad3b}, ! Handle
  Wall Insulation [50],                   ! Name
  MediumRough,                            ! Roughness
  0.078829,                               ! Thickness {m}
  0.045,                                  ! Conductivity {W/m-K}
  265,                                    ! Density {kg/m3}
  836.8,                                  ! Specific Heat {J/kg-K}
  0.9,                                    ! Thermal Absorptance
  0.7,                                    ! Solar Absorptance
  0.7;                                    ! Visible Absorptance

OS:ComponentCost:LineItem,
  {9be63789-ad37-418f-bed5-ff5289077bea}, ! Handle
  AEDG-SmOffice 1A Ext Wall Spandrel,     ! Name
  ,                                       ! Type
  Construction,                           ! Line Item Type
  AEDG-SmOffice 1A Ext Wall Spandrel,     ! Item Name
  ,                                       ! Object End Use Key
  ,                                       ! Quantity {dimensionless}
  74.63,                                  ! Material Cost {$}
  CostPerArea;                            ! Material Cost Units

