
! 
OS:Version,
  {9c37d538-db0d-4a47-9850-5bede7e76bd5}, !- Handle
  1.13.0;                                 !- Version Identifier


! {"nombreProductoCorto": "CLIMALIT PLUS con COOL LITE SKN 054 F2 6 (16 argon90%) 44.2 DIAMANT", "codigoEAN": "", "handle": "7e976158-5e2c-4728-933c-6263a3183f7e", "g": 0.28, "tV": 0.52, "u": 1.0, "nombreProducto": "CLIMALIT PLUS con COOL LITE SKN 054 F2 6 (16 argon90%) 44.2 DIAMANT\nU:1.0 W/m2K - g:0.28 - Tv: 0.52"}
OS:WindowMaterial:SimpleGlazingSystem,
  {7e976158-5e2c-4728-933c-6263a3183f7e}, !- Handle
  CLIMALIT PLUS con COOL LITE SKN 054 F2 6 (16 argon90%) 44.2 DIAMANT, !- Name
  1.0,                                    !- U-Factor {W/m2-K}
  0.28,                                    !- Solar Heat Gain Coefficient
  0.52;                                    !- Visible Transmittance     
  
  
OS:Construction,
  {bc4ba155-545f-4915-8a4c-f5d7733db00a}, !- Handle
  CLIMALIT PLUS con COOL LITE SKN 054 F2 6 (16 argon90%) 44.2 DIAMANT,                         !- Name
  ,                                       !- Surface Rendering Name
  {7e976158-5e2c-4728-933c-6263a3183f7e}; !- Layer 1  

