
OS:Version,
  {2a1ec191-d3fa-4339-8ec2-6035364be7d5}, ! Handle
  0.9.3;                                  ! Version Identifier

OS:Construction,
  {e3993c0d-493a-4669-b64e-54b3c7035e66}, !- Handle
  CLIMALIT PLUS con COOL LITE SKN 054 F2 6 (16 argon90%) 44.2 DIAMANT,                         !- Name
  ,                                       !- Surface Rendering Name
  {7e976158-5e2c-4728-933c-6263a3183f7e}; !- Layer 1  
  



        
OS:WindowMaterial:SimpleGlazingSystem,
  {7e976158-5e2c-4728-933c-6263a3183f7e}, !- Handle
  CLIMALIT PLUS con COOL LITE SKN 054 F2 6 (16 argon90%) 44.2 DIAMANT, !- Name
  1.0,                                    !- U-Factor {W/m2-K}
  0.28,                                    !- Solar Heat Gain Coefficient
  0.52;                                    !- Visible Transmittance     


OS:ComponentCost:LineItem,
  {d449a5e7-688b-4987-a92a-4051178b962c}, ! Handle
  CLIMALIT PLUS con COOL LITE SKN 054 F2 6 (16 argon90%) 44.2 DIAMANT,        ! Name
  ,                                       ! Type
  Construction,                           ! Line Item Type
  CLIMALIT PLUS con COOL LITE SKN 054 F2 6 (16 argon90%) 44.2 DIAMANT,        ! Item Name
  ,                                       ! Object End Use Key
  ,                                       ! Quantity {dimensionless}
  600.0,                                ! Material Cost {$}
  CostPerArea;                            ! Material Cost Units



OS:ComponentData,
  {2125b35a-23e0-41ee-8a80-d35279b4bff2}, ! Handle
  Component Data 1,                       ! Name
  {7adb20da-0b19-4493-bda7-a226e403e358}, ! UUID
  {bc561eed-474c-42a3-aed0-d0828ac8730e}, ! Version UUID
  1487924014,                             ! Creation Timestamp
  1487924014,                             ! Version Timestamp
  {e3993c0d-493a-4669-b64e-54b3c7035e66}, ! Name of Object 1
  {7e976158-5e2c-4728-933c-6263a3183f7e}, ! Name of Object 2
  {d449a5e7-688b-4987-a92a-4051178b962c}; ! Name of Object 3

  

