
OS:Version,
  {1a84a4a4-ef73-4020-8e0a-17c05968d965}, ! Handle
  0.9.3;                                  ! Version Identifier

OS:WindowMaterial:Glazing,
  {22289924-8b77-45dc-a8f6-052f44c97ec9}, ! Handle
  Theoretical Glass [591],                ! Name
  SpectralAverage,                        ! Optical Data Type
  ,                                       ! Window Glass Spectral Data Set Name
  0.003,                                  ! Thickness {m}
  0.525055,                               ! Solar Transmittance at Normal Incidence
  0.424945,                               ! Front Side Solar Reflectance at Normal Incidence
  0.424945,                               ! Back Side Solar Reflectance at Normal Incidence
  0.59013,                                ! Visible Transmittance at Normal Incidence
  0.35987,                                ! Front Side Visible Reflectance at Normal Incidence
  0.35987,                                ! Back Side Visible Reflectance at Normal Incidence
  0,                                      ! Infrared Transmittance at Normal Incidence
  0.9,                                    ! Front Side Infrared Hemispherical Emissivity
  0.9,                                    ! Back Side Infrared Hemispherical Emissivity
  0.00811056;                             ! Conductivity {W/m-K}

OS:ComponentCost:LineItem,
  {7299a701-1500-4296-974c-9d132a77f3cd}, ! Handle
  90.1 Windows Window Fixed 2650 Vnl-ClrPye-Ins-ClrPye, ! Name
  ,                                       ! Type
  Construction,                           ! Line Item Type
  90.1 Windows Window Fixed 2650 Vnl-ClrPye-Ins-ClrPye, ! Item Name
  ,                                       ! Object End Use Key
  ,                                       ! Quantity {dimensionless}
  0,                                      ! Material Cost {$}
  CostPerArea;                            ! Material Cost Units

OS:Construction,
  {363b6539-e97a-4c44-8c4e-af30efdab21b}, ! Handle
  90.1 Windows Window Fixed 2650 Vnl-ClrPye-Ins-ClrPye, ! Name
  ,                                       ! Surface Rendering Name
  {22289924-8b77-45dc-a8f6-052f44c97ec9}; ! Layer 1

