
OS:Version,
  {0e1a5fe6-4f3f-4ae9-b790-1ba82f1f7cf7}, !- Handle
  1.1.0;                                  !- Version Identifier

OS:Construction,
  {01f7bfde-d7c4-422d-a3cd-d000f529faef}, !- Handle
  Trp LoE Film (66) Bronze 6mm/13mm Air,  !- Name
  ,                                       !- Surface Rendering Name
  {abb9d676-39ff-4e1d-8323-497764dff885}, !- Layer 1
  {61414efb-cf37-4c3a-be5e-01e63107c978}, !- Layer 2
  {88abfbb6-effa-4823-ac78-a37db6b03ab3}, !- Layer 3
  {61414efb-cf37-4c3a-be5e-01e63107c978}, !- Layer 4
  {e14fdc53-01ea-4c2a-a5d9-9387b71d37b6}; !- Layer 5

OS:WindowMaterial:Glazing,
  {abb9d676-39ff-4e1d-8323-497764dff885}, !- Handle
  BRONZE 6MM,                             !- Name
  SpectralAverage,                        !- Optical Data Type
  ,                                       !- Window Glass Spectral Data Set Name
  0.006,                                  !- Thickness {m}
  0.482,                                  !- Solar Transmittance at Normal Incidence
  0.054,                                  !- Front Side Solar Reflectance at Normal Incidence
  0.054,                                  !- Back Side Solar Reflectance at Normal Incidence
  0.534,                                  !- Visible Transmittance at Normal Incidence
  0.057,                                  !- Front Side Visible Reflectance at Normal Incidence
  0.057,                                  !- Back Side Visible Reflectance at Normal Incidence
  0,                                      !- Infrared Transmittance at Normal Incidence
  0.84,                                   !- Front Side Infrared Hemispherical Emissivity
  0.84,                                   !- Back Side Infrared Hemispherical Emissivity
  0.9;                                    !- Conductivity {W/m-K}

OS:WindowMaterial:Gas,
  {61414efb-cf37-4c3a-be5e-01e63107c978}, !- Handle
  AIR 13MM,                               !- Name
  Air,                                    !- Gas Type
  0.0127;                                 !- Thickness {m}

OS:WindowMaterial:Glazing,
  {88abfbb6-effa-4823-ac78-a37db6b03ab3}, !- Handle
  COATED POLY-66,                         !- Name
  SpectralAverage,                        !- Optical Data Type
  ,                                       !- Window Glass Spectral Data Set Name
  0.00051,                                !- Thickness {m}
  0.403,                                  !- Solar Transmittance at Normal Incidence
  0.514,                                  !- Front Side Solar Reflectance at Normal Incidence
  0.515,                                  !- Back Side Solar Reflectance at Normal Incidence
  0.658,                                  !- Visible Transmittance at Normal Incidence
  0.256,                                  !- Front Side Visible Reflectance at Normal Incidence
  0.279,                                  !- Back Side Visible Reflectance at Normal Incidence
  0,                                      !- Infrared Transmittance at Normal Incidence
  0.057,                                  !- Front Side Infrared Hemispherical Emissivity
  0.72,                                   !- Back Side Infrared Hemispherical Emissivity
  0.14;                                   !- Conductivity {W/m-K}

OS:WindowMaterial:Glazing,
  {e14fdc53-01ea-4c2a-a5d9-9387b71d37b6}, !- Handle
  CLEAR 6MM,                              !- Name
  SpectralAverage,                        !- Optical Data Type
  ,                                       !- Window Glass Spectral Data Set Name
  0.006,                                  !- Thickness {m}
  0.775,                                  !- Solar Transmittance at Normal Incidence
  0.071,                                  !- Front Side Solar Reflectance at Normal Incidence
  0.071,                                  !- Back Side Solar Reflectance at Normal Incidence
  0.881,                                  !- Visible Transmittance at Normal Incidence
  0.08,                                   !- Front Side Visible Reflectance at Normal Incidence
  0.08,                                   !- Back Side Visible Reflectance at Normal Incidence
  0,                                      !- Infrared Transmittance at Normal Incidence
  0.84,                                   !- Front Side Infrared Hemispherical Emissivity
  0.84,                                   !- Back Side Infrared Hemispherical Emissivity
  0.9;                                    !- Conductivity {W/m-K}

