
OS:Version,
  {02b4694c-d34a-4529-b49f-f6b05c6094b3}, ! Handle
  0.9.3;                                  ! Version Identifier

OS:WindowMaterial:Glazing,
  {efa4f40e-f651-40fc-8096-b0c684cbb4f0}, ! Handle
  Theoretical Glass [157],                ! Name
  SpectralAverage,                        ! Optical Data Type
  ,                                       ! Window Glass Spectral Data Set Name
  0.003,                                  ! Thickness {m}
  0.482092,                               ! Solar Transmittance at Normal Incidence
  0.467908,                               ! Front Side Solar Reflectance at Normal Incidence
  0.467908,                               ! Back Side Solar Reflectance at Normal Incidence
  0.489393,                               ! Visible Transmittance at Normal Incidence
  0.460607,                               ! Front Side Visible Reflectance at Normal Incidence
  0.460607,                               ! Back Side Visible Reflectance at Normal Incidence
  0,                                      ! Infrared Transmittance at Normal Incidence
  0.9,                                    ! Front Side Infrared Hemispherical Emissivity
  0.9,                                    ! Back Side Infrared Hemispherical Emissivity
  0.0205762;                              ! Conductivity {W/m-K}

OS:Construction,
  {c07d07a6-7a0d-45cf-a2d0-0a14e81b9fe2}, ! Handle
  90.1-2004 Nonres 8A Skylight without Curb, ! Name
  ,                                       ! Surface Rendering Name
  {efa4f40e-f651-40fc-8096-b0c684cbb4f0}; ! Layer 1

OS:ComponentCost:LineItem,
  {15158f33-65fa-4ce7-98a8-368beee6aa14}, ! Handle
  90.1-2004 Nonres 8A Skylight without Curb, ! Name
  ,                                       ! Type
  Construction,                           ! Line Item Type
  90.1-2004 Nonres 8A Skylight without Curb, ! Item Name
  ,                                       ! Object End Use Key
  ,                                       ! Quantity {dimensionless}
  549.465,                                ! Material Cost {$}
  CostPerArea;                            ! Material Cost Units

