
OS:Version,
  {62cd31d5-9a7b-4ab3-8462-f6dd73107368}, ! Handle
  0.9.3;                                  ! Version Identifier

OS:Construction,
  {8c7e114e-5ad8-419d-b094-67d6f2eda204}, ! Handle
  90.1-2007 Res 3A Ext Slab Unheated - 4in Slab with Carpet, ! Name
  ,                                       ! Surface Rendering Name
  {e79ae929-b84a-4deb-868a-93f98c82c165}, ! Layer 1
  {099f6c80-fd9f-48bb-b352-d2a2e124fb25}; ! Layer 2

OS:Material,
  {e79ae929-b84a-4deb-868a-93f98c82c165}, ! Handle
  MAT-CC05 4 HW CONCRETE,                 ! Name
  Rough,                                  ! Roughness
  0.1016,                                 ! Thickness {m}
  1.311,                                  ! Conductivity {W/m-K}
  2240,                                   ! Density {kg/m3}
  836.8,                                  ! Specific Heat {J/kg-K}
  0.9,                                    ! Thermal Absorptance
  0.7,                                    ! Solar Absorptance
  0.7;                                    ! Visible Absorptance

OS:Material:NoMass,
  {099f6c80-fd9f-48bb-b352-d2a2e124fb25}, ! Handle
  CP02 CARPET PAD,                        ! Name
  VeryRough,                              ! Roughness
  0.21648,                                ! Thermal Resistance {m2-K/W}
  0.9,                                    ! Thermal Absorptance
  0.7,                                    ! Solar Absorptance
  0.8;                                    ! Visible Absorptance

OS:ComponentCost:LineItem,
  {9229e777-f0e3-4dbb-b72b-4ca01d71245f}, ! Handle
  90.1-2007 Res 3A Ext Slab Unheated - 4in Slab with Carpet, ! Name
  ,                                       ! Type
  Construction,                           ! Line Item Type
  90.1-2007 Res 3A Ext Slab Unheated - 4in Slab with Carpet, ! Item Name
  ,                                       ! Object End Use Key
  ,                                       ! Quantity {dimensionless}
  45.52,                                  ! Material Cost {$}
  CostPerArea;                            ! Material Cost Units

