
OS:Version,
  {26a9a074-6932-441b-8ee7-94efaec76a87}, ! Handle
  0.9.3;                                  ! Version Identifier

OS:Material,
  {f4638206-4cce-4721-8660-4a2c0b16d00a}, ! Handle
  1/2IN Gypsum,                           ! Name
  Smooth,                                 ! Roughness
  0.01271,                                ! Thickness {m}
  0.16,                                   ! Conductivity {W/m-K}
  784.9,                                  ! Density {kg/m3}
  830,                                    ! Specific Heat {J/kg-K}
  0.9,                                    ! Thermal Absorptance
  0.92,                                   ! Solar Absorptance
  0.92;                                   ! Visible Absorptance

OS:Material:NoMass,
  {e85fba93-46a8-4286-9afb-a55bfeb8c303}, ! Handle
  MAT-SHEATH,                             ! Name
  Rough,                                  ! Roughness
  0.36256,                                ! Thermal Resistance {m2-K/W}
  0.9,                                    ! Thermal Absorptance
  0.7,                                    ! Solar Absorptance
  0.7;                                    ! Visible Absorptance

OS:ComponentCost:LineItem,
  {f6604134-5484-4458-882a-302ae69ae77c}, ! Handle
  189.1-2009 Nonres 6B Ext Wall Steel-Framed, ! Name
  ,                                       ! Type
  Construction,                           ! Line Item Type
  189.1-2009 Nonres 6B Ext Wall Steel-Framed, ! Item Name
  ,                                       ! Object End Use Key
  ,                                       ! Quantity {dimensionless}
  97.51,                                  ! Material Cost {$}
  CostPerArea;                            ! Material Cost Units

OS:Material,
  {f47c274d-70e8-4f68-9b3c-fc5d782e9ee5}, ! Handle
  Wall Insulation [39],                   ! Name
  MediumRough,                            ! Roughness
  0.118387,                               ! Thickness {m}
  0.045,                                  ! Conductivity {W/m-K}
  265,                                    ! Density {kg/m3}
  836.8,                                  ! Specific Heat {J/kg-K}
  0.9,                                    ! Thermal Absorptance
  0.7,                                    ! Solar Absorptance
  0.7;                                    ! Visible Absorptance

OS:Construction,
  {64844813-b39e-4a5e-ab7f-ebd51553b0e1}, ! Handle
  189.1-2009 Nonres 6B Ext Wall Steel-Framed, ! Name
  ,                                       ! Surface Rendering Name
  {e85fba93-46a8-4286-9afb-a55bfeb8c303}, ! Layer 1
  {f47c274d-70e8-4f68-9b3c-fc5d782e9ee5}, ! Layer 2
  {f4638206-4cce-4721-8660-4a2c0b16d00a}; ! Layer 3

