
OS:Version,
  {ee610da3-f26b-4e99-ab9b-0afb01cd50e7}, ! Handle
  0.9.3;                                  ! Version Identifier

OS:Material:NoMass,
  {8fb3c483-54c8-4b8d-9287-b5764af6d314}, ! Handle
  CP02 CARPET PAD,                        ! Name
  VeryRough,                              ! Roughness
  0.21648,                                ! Thermal Resistance {m2-K/W}
  0.9,                                    ! Thermal Absorptance
  0.7,                                    ! Solar Absorptance
  0.8;                                    ! Visible Absorptance

OS:Material,
  {ed6ea7ed-16cb-4b21-a5a9-847d98325eb1}, ! Handle
  MAT-CC05 4 HW CONCRETE,                 ! Name
  Rough,                                  ! Roughness
  0.1016,                                 ! Thickness {m}
  1.311,                                  ! Conductivity {W/m-K}
  2240,                                   ! Density {kg/m3}
  836.8,                                  ! Specific Heat {J/kg-K}
  0.9,                                    ! Thermal Absorptance
  0.7,                                    ! Solar Absorptance
  0.7;                                    ! Visible Absorptance

OS:ComponentCost:LineItem,
  {7d1e5f1b-ccb3-479a-bfea-b60a289649d1}, ! Handle
  90.1-1999 Nonres B1 Ext Slab Unheated - 4in Slab with Carpet, ! Name
  ,                                       ! Type
  Construction,                           ! Line Item Type
  90.1-1999 Nonres B1 Ext Slab Unheated - 4in Slab with Carpet, ! Item Name
  ,                                       ! Object End Use Key
  ,                                       ! Quantity {dimensionless}
  45.52,                                  ! Material Cost {$}
  CostPerArea;                            ! Material Cost Units

OS:Construction,
  {5421bb35-43d6-4260-8db2-51e492c0062e}, ! Handle
  90.1-1999 Nonres B1 Ext Slab Unheated - 4in Slab with Carpet, ! Name
  ,                                       ! Surface Rendering Name
  {ed6ea7ed-16cb-4b21-a5a9-847d98325eb1}, ! Layer 1
  {8fb3c483-54c8-4b8d-9287-b5764af6d314}; ! Layer 2

