
OS:Version,
  {2d0e84ff-7c12-41a6-b85c-2124de3cda5d}, ! Handle
  0.9.3;                                  ! Version Identifier

OS:ComponentCost:LineItem,
  {008cf2ff-efb7-48eb-a0b0-427dfcb825f3}, ! Handle
  90.1-2007 Res 6B Ext Wall Wood-Framed and Other, ! Name
  ,                                       ! Type
  Construction,                           ! Line Item Type
  90.1-2007 Res 6B Ext Wall Wood-Framed and Other, ! Item Name
  ,                                       ! Object End Use Key
  ,                                       ! Quantity {dimensionless}
  80.638,                                 ! Material Cost {$}
  CostPerArea;                            ! Material Cost Units

OS:Material,
  {8dd0d6f5-9549-4a75-9015-abdd4d5bf109}, ! Handle
  Wall Insulation [13],                   ! Name
  MediumRough,                            ! Roughness
  0.140713,                               ! Thickness {m}
  0.045,                                  ! Conductivity {W/m-K}
  265,                                    ! Density {kg/m3}
  836.8,                                  ! Specific Heat {J/kg-K}
  0.9,                                    ! Thermal Absorptance
  0.7,                                    ! Solar Absorptance
  0.7;                                    ! Visible Absorptance

OS:Material,
  {d9257e8c-7713-4029-9f94-2879b1ca8ffb}, ! Handle
  Wood Siding,                            ! Name
  MediumSmooth,                           ! Roughness
  0.01,                                   ! Thickness {m}
  0.11,                                   ! Conductivity {W/m-K}
  544.62,                                 ! Density {kg/m3}
  1210,                                   ! Specific Heat {J/kg-K}
  0.9,                                    ! Thermal Absorptance
  0.78,                                   ! Solar Absorptance
  0.78;                                   ! Visible Absorptance

OS:Material,
  {626f6e5a-f591-487a-833e-92bafda58a98}, ! Handle
  1/2IN Gypsum,                           ! Name
  Smooth,                                 ! Roughness
  0.01271,                                ! Thickness {m}
  0.16,                                   ! Conductivity {W/m-K}
  784.9,                                  ! Density {kg/m3}
  830,                                    ! Specific Heat {J/kg-K}
  0.9,                                    ! Thermal Absorptance
  0.92,                                   ! Solar Absorptance
  0.92;                                   ! Visible Absorptance

OS:Construction,
  {2eb44ff4-c662-4a4f-83e9-d922263d7794}, ! Handle
  90.1-2007 Res 6B Ext Wall Wood-Framed and Other, ! Name
  ,                                       ! Surface Rendering Name
  {d9257e8c-7713-4029-9f94-2879b1ca8ffb}, ! Layer 1
  {8dd0d6f5-9549-4a75-9015-abdd4d5bf109}, ! Layer 2
  {626f6e5a-f591-487a-833e-92bafda58a98}; ! Layer 3

