
OS:Version,
  {2ae68829-caa6-4430-9bac-9ca63339fd55}, ! Handle
  0.9.3;                                  ! Version Identifier

OS:Construction,
  {7cfade89-dac6-4ed9-898e-9c48c905087f}, ! Handle
  90.1-2007 Res 6B Ext Wall Wood-Framed and Other, ! Name
  ,                                       ! Surface Rendering Name
  {3a543c8c-fc4a-4d1d-b22e-ce8727399c95}, ! Layer 1
  {521da477-5a25-4fcd-9e54-47e96ea91b07}, ! Layer 2
  {3a7a5bee-537b-44bb-894b-8bb299b7b867}; ! Layer 3

OS:Material,
  {3a543c8c-fc4a-4d1d-b22e-ce8727399c95}, ! Handle
  Wood Siding,                            ! Name
  MediumSmooth,                           ! Roughness
  0.01,                                   ! Thickness {m}
  0.11,                                   ! Conductivity {W/m-K}
  544.62,                                 ! Density {kg/m3}
  1210,                                   ! Specific Heat {J/kg-K}
  0.9,                                    ! Thermal Absorptance
  0.78,                                   ! Solar Absorptance
  0.78;                                   ! Visible Absorptance

OS:Material,
  {521da477-5a25-4fcd-9e54-47e96ea91b07}, ! Handle
  Wall Insulation [13],                   ! Name
  MediumRough,                            ! Roughness
  0.140713,                               ! Thickness {m}
  0.045,                                  ! Conductivity {W/m-K}
  265,                                    ! Density {kg/m3}
  836.8,                                  ! Specific Heat {J/kg-K}
  0.9,                                    ! Thermal Absorptance
  0.7,                                    ! Solar Absorptance
  0.7;                                    ! Visible Absorptance

OS:Material,
  {3a7a5bee-537b-44bb-894b-8bb299b7b867}, ! Handle
  1/2IN Gypsum,                           ! Name
  Smooth,                                 ! Roughness
  0.01271,                                ! Thickness {m}
  0.16,                                   ! Conductivity {W/m-K}
  784.9,                                  ! Density {kg/m3}
  830,                                    ! Specific Heat {J/kg-K}
  0.9,                                    ! Thermal Absorptance
  0.92,                                   ! Solar Absorptance
  0.92;                                   ! Visible Absorptance

OS:ComponentCost:LineItem,
  {177ad864-2526-464c-a2cb-9dca2fa806e5}, ! Handle
  90.1-2007 Res 6B Ext Wall Wood-Framed and Other, ! Name
  ,                                       ! Type
  Construction,                           ! Line Item Type
  90.1-2007 Res 6B Ext Wall Wood-Framed and Other, ! Item Name
  ,                                       ! Object End Use Key
  ,                                       ! Quantity {dimensionless}
  80.638,                                 ! Material Cost {$}
  CostPerArea;                            ! Material Cost Units

OS:ComponentData,
  {5b1f06d0-d0cf-4d09-acfe-25ab158502ed}, ! Handle
  Component Data 1,                       ! Name
  {23cea042-50df-45f0-af35-9c29561b637c}, ! UUID
  {56757bb8-ae30-4a0f-9ac7-df4ad8f02045}, ! Version UUID
  1363981864,                             ! Creation Timestamp
  1363981864,                             ! Version Timestamp
  {7cfade89-dac6-4ed9-898e-9c48c905087f}, ! Name of Object 1
  {3a543c8c-fc4a-4d1d-b22e-ce8727399c95}, ! Name of Object 2
  {521da477-5a25-4fcd-9e54-47e96ea91b07}, ! Name of Object 3
  {3a7a5bee-537b-44bb-894b-8bb299b7b867}, ! Name of Object 4
  {177ad864-2526-464c-a2cb-9dca2fa806e5}; ! Name of Object 5

