
OS:Version,
  {377a5331-f155-4674-98fb-375fc11605f0}, ! Handle
  0.9.3;                                  ! Version Identifier

OS:Material,
  {8e83713e-bb09-46f1-971c-e162e7f4ac8c}, ! Handle
  Wood Siding,                            ! Name
  MediumSmooth,                           ! Roughness
  0.01,                                   ! Thickness {m}
  0.11,                                   ! Conductivity {W/m-K}
  544.62,                                 ! Density {kg/m3}
  1210,                                   ! Specific Heat {J/kg-K}
  0.9,                                    ! Thermal Absorptance
  0.78,                                   ! Solar Absorptance
  0.78;                                   ! Visible Absorptance

OS:Material,
  {a064ff4f-3981-4870-94db-8201dddf3917}, ! Handle
  1/2IN Gypsum,                           ! Name
  Smooth,                                 ! Roughness
  0.01271,                                ! Thickness {m}
  0.16,                                   ! Conductivity {W/m-K}
  784.9,                                  ! Density {kg/m3}
  830,                                    ! Specific Heat {J/kg-K}
  0.9,                                    ! Thermal Absorptance
  0.92,                                   ! Solar Absorptance
  0.92;                                   ! Visible Absorptance

OS:Construction,
  {41934da1-d17e-48bc-9cf0-2f3cce3c4012}, ! Handle
  90.1-2004 Nonres 8A Ext Wall Wood-Framed and Other, ! Name
  ,                                       ! Surface Rendering Name
  {8e83713e-bb09-46f1-971c-e162e7f4ac8c}, ! Layer 1
  {268bdc97-6a90-4e25-983e-3659cc5ada9c}, ! Layer 2
  {a064ff4f-3981-4870-94db-8201dddf3917}; ! Layer 3

OS:Material,
  {268bdc97-6a90-4e25-983e-3659cc5ada9c}, ! Handle
  Wall Insulation [13],                   ! Name
  MediumRough,                            ! Roughness
  0.140713,                               ! Thickness {m}
  0.045,                                  ! Conductivity {W/m-K}
  265,                                    ! Density {kg/m3}
  836.8,                                  ! Specific Heat {J/kg-K}
  0.9,                                    ! Thermal Absorptance
  0.7,                                    ! Solar Absorptance
  0.7;                                    ! Visible Absorptance

OS:ComponentCost:LineItem,
  {19d30260-4025-4a8b-a6eb-ab07565a4939}, ! Handle
  90.1-2004 Nonres 8A Ext Wall Wood-Framed and Other, ! Name
  ,                                       ! Type
  Construction,                           ! Line Item Type
  90.1-2004 Nonres 8A Ext Wall Wood-Framed and Other, ! Item Name
  ,                                       ! Object End Use Key
  ,                                       ! Quantity {dimensionless}
  80.638,                                 ! Material Cost {$}
  CostPerArea;                            ! Material Cost Units

