
OS:Version,
  {225f00af-fdfa-4852-a60b-4d78e949eeeb}, ! Handle
  0.9.3;                                  ! Version Identifier

OS:Material,
  {258c526f-0f9b-42cf-91a9-028c7826c3dd}, ! Handle
  1/2IN Gypsum,                           ! Name
  Smooth,                                 ! Roughness
  0.01271,                                ! Thickness {m}
  0.16,                                   ! Conductivity {W/m-K}
  784.9,                                  ! Density {kg/m3}
  830,                                    ! Specific Heat {J/kg-K}
  0.9,                                    ! Thermal Absorptance
  0.92,                                   ! Solar Absorptance
  0.92;                                   ! Visible Absorptance

OS:ComponentCost:LineItem,
  {f09eec3b-95c4-4751-9569-dd3e8453beb3}, ! Handle
  90.1-1999 Res B13 Roof Attic and Other, ! Name
  ,                                       ! Type
  Construction,                           ! Line Item Type
  90.1-1999 Res B13 Roof Attic and Other, ! Item Name
  ,                                       ! Object End Use Key
  ,                                       ! Quantity {dimensionless}
  34.757,                                 ! Material Cost {$}
  CostPerArea;                            ! Material Cost Units

OS:Material,
  {87b900ea-0a26-4ac5-bb0f-e52bb8d4d56a}, ! Handle
  1IN Wood Decking,                       ! Name
  MediumSmooth,                           ! Roughness
  0.0254,                                 ! Thickness {m}
  0.1211,                                 ! Conductivity {W/m-K}
  593,                                    ! Density {kg/m3}
  2510,                                   ! Specific Heat {J/kg-K}
  0.9,                                    ! Thermal Absorptance
  0.78,                                   ! Solar Absorptance
  0.78;                                   ! Visible Absorptance

OS:Material,
  {397bbfb7-8e78-42bb-97ee-febd57fa1163}, ! Handle
  Wood Shingles,                          ! Name
  VeryRough,                              ! Roughness
  0.0178,                                 ! Thickness {m}
  0.115,                                  ! Conductivity {W/m-K}
  513,                                    ! Density {kg/m3}
  1255,                                   ! Specific Heat {J/kg-K}
  0.9,                                    ! Thermal Absorptance
  0.78,                                   ! Solar Absorptance
  0.78;                                   ! Visible Absorptance

OS:Material,
  {7a9ca8a4-7999-4ffe-8139-27f829b11fb4}, ! Handle
  Roof Insulation [5],                    ! Name
  MediumRough,                            ! Roughness
  0.286906,                               ! Thickness {m}
  0.049,                                  ! Conductivity {W/m-K}
  265,                                    ! Density {kg/m3}
  836.8,                                  ! Specific Heat {J/kg-K}
  0.9,                                    ! Thermal Absorptance
  0.7,                                    ! Solar Absorptance
  0.7;                                    ! Visible Absorptance

OS:Construction,
  {7627d3e8-e5fd-4978-83ee-6f1e187f9672}, ! Handle
  90.1-1999 Res B13 Roof Attic and Other, ! Name
  ,                                       ! Surface Rendering Name
  {397bbfb7-8e78-42bb-97ee-febd57fa1163}, ! Layer 1
  {87b900ea-0a26-4ac5-bb0f-e52bb8d4d56a}, ! Layer 2
  {7a9ca8a4-7999-4ffe-8139-27f829b11fb4}, ! Layer 3
  {258c526f-0f9b-42cf-91a9-028c7826c3dd}; ! Layer 4

