
OS:Version,
  {47d14155-5cd3-4aff-9ee5-4ed3524964b1}, ! Handle
  0.9.3;                                  ! Version Identifier

OS:WindowMaterial:Glazing,
  {725f348b-0f28-424b-baf9-a5b5d87024f6}, ! Handle
  Theoretical Glass [452],                ! Name
  SpectralAverage,                        ! Optical Data Type
  ,                                       ! Window Glass Spectral Data Set Name
  0.003,                                  ! Thickness {m}
  0.293063,                               ! Solar Transmittance at Normal Incidence
  0.656937,                               ! Front Side Solar Reflectance at Normal Incidence
  0.656937,                               ! Back Side Solar Reflectance at Normal Incidence
  0.34081,                                ! Visible Transmittance at Normal Incidence
  0.60919,                                ! Front Side Visible Reflectance at Normal Incidence
  0.60919,                                ! Back Side Visible Reflectance at Normal Incidence
  0,                                      ! Infrared Transmittance at Normal Incidence
  0.9,                                    ! Front Side Infrared Hemispherical Emissivity
  0.9,                                    ! Back Side Infrared Hemispherical Emissivity
  0.0213046;                              ! Conductivity {W/m-K}

OS:ComponentCost:LineItem,
  {086c18f8-374c-4099-8103-9692adf8237e}, ! Handle
  90.1 Windows Window Fixed 2119 Mtl-HptSbe-Std-Clr, ! Name
  ,                                       ! Type
  Construction,                           ! Line Item Type
  90.1 Windows Window Fixed 2119 Mtl-HptSbe-Std-Clr, ! Item Name
  ,                                       ! Object End Use Key
  ,                                       ! Quantity {dimensionless}
  0,                                      ! Material Cost {$}
  CostPerArea;                            ! Material Cost Units

OS:Construction,
  {90d03eba-f811-4c12-9ab4-096523ef6132}, ! Handle
  90.1 Windows Window Fixed 2119 Mtl-HptSbe-Std-Clr, ! Name
  ,                                       ! Surface Rendering Name
  {725f348b-0f28-424b-baf9-a5b5d87024f6}; ! Layer 1

