
OS:Version,
  {4bd7d9b5-4a4a-4c1a-b0cd-61dba83424a2}, ! Handle
  0.9.3;                                  ! Version Identifier

OS:Material,
  {13acd9f8-7485-403b-b39e-280343d6122f}, ! Handle
  Metal Roofing,                          ! Name
  MediumSmooth,                           ! Roughness
  0.001524,                               ! Thickness {m}
  45.006,                                 ! Conductivity {W/m-K}
  7680,                                   ! Density {kg/m3}
  418.4,                                  ! Specific Heat {J/kg-K}
  0.9,                                    ! Thermal Absorptance
  0.7,                                    ! Solar Absorptance
  0.3;                                    ! Visible Absorptance

OS:ComponentCost:LineItem,
  {65b92115-92f5-48a5-8bcc-ed7a3bfcca58}, ! Handle
  90.1-1999 Nonres B13 Roof Metal Building, ! Name
  ,                                       ! Type
  Construction,                           ! Line Item Type
  90.1-1999 Nonres B13 Roof Metal Building, ! Item Name
  ,                                       ! Object End Use Key
  ,                                       ! Quantity {dimensionless}
  38.206,                                 ! Material Cost {$}
  CostPerArea;                            ! Material Cost Units

OS:Construction,
  {72437e7e-0577-45d4-8972-67fef40191c9}, ! Handle
  90.1-1999 Nonres B13 Roof Metal Building, ! Name
  ,                                       ! Surface Rendering Name
  {13acd9f8-7485-403b-b39e-280343d6122f}, ! Layer 1
  {0b4a952e-6e0e-4a57-8b0d-937c6c4d8266}; ! Layer 2

OS:Material,
  {0b4a952e-6e0e-4a57-8b0d-937c6c4d8266}, ! Handle
  Roof Insulation [1],                    ! Name
  MediumRough,                            ! Roughness
  0.123533,                               ! Thickness {m}
  0.049,                                  ! Conductivity {W/m-K}
  265,                                    ! Density {kg/m3}
  836.8,                                  ! Specific Heat {J/kg-K}
  0.9,                                    ! Thermal Absorptance
  0.7,                                    ! Solar Absorptance
  0.7;                                    ! Visible Absorptance

