
OS:Version,
  {38b09bec-43b7-4e7e-8bb7-8070de5bfa9e}, ! Handle
  0.9.3;                                  ! Version Identifier

OS:Construction,
  {9d3dfd63-9467-45ed-9ea4-b03fb51c2db4}, ! Handle
  90.1-1999 Nonres B13 Roof Metal Building, ! Name
  ,                                       ! Surface Rendering Name
  {bc74c776-2b74-4408-bf63-bf09df2709e3}, ! Layer 1
  {50663298-0263-4b69-bb0f-7afccb06caf1}; ! Layer 2

OS:Material,
  {bc74c776-2b74-4408-bf63-bf09df2709e3}, ! Handle
  Metal Roofing,                          ! Name
  MediumSmooth,                           ! Roughness
  0.001524,                               ! Thickness {m}
  45.006,                                 ! Conductivity {W/m-K}
  7680,                                   ! Density {kg/m3}
  418.4,                                  ! Specific Heat {J/kg-K}
  0.9,                                    ! Thermal Absorptance
  0.7,                                    ! Solar Absorptance
  0.3;                                    ! Visible Absorptance

OS:Material,
  {50663298-0263-4b69-bb0f-7afccb06caf1}, ! Handle
  Roof Insulation [1],                    ! Name
  MediumRough,                            ! Roughness
  0.123533,                               ! Thickness {m}
  0.049,                                  ! Conductivity {W/m-K}
  265,                                    ! Density {kg/m3}
  836.8,                                  ! Specific Heat {J/kg-K}
  0.9,                                    ! Thermal Absorptance
  0.7,                                    ! Solar Absorptance
  0.7;                                    ! Visible Absorptance

OS:ComponentCost:LineItem,
  {740f36cb-bb35-42f9-8b8e-0479e687e4b7}, ! Handle
  90.1-1999 Nonres B13 Roof Metal Building, ! Name
  ,                                       ! Type
  Construction,                           ! Line Item Type
  90.1-1999 Nonres B13 Roof Metal Building, ! Item Name
  ,                                       ! Object End Use Key
  ,                                       ! Quantity {dimensionless}
  38.206,                                 ! Material Cost {$}
  CostPerArea;                            ! Material Cost Units

OS:ComponentData,
  {b6e539f4-5925-40c0-847f-336daf577b65}, ! Handle
  Component Data 1,                       ! Name
  {ee893b9e-00f2-456e-883e-09737f616bfa}, ! UUID
  {b329fbf9-0027-435f-a551-bfbc5c705c6c}, ! Version UUID
  1363981095,                             ! Creation Timestamp
  1363981095,                             ! Version Timestamp
  {9d3dfd63-9467-45ed-9ea4-b03fb51c2db4}, ! Name of Object 1
  {bc74c776-2b74-4408-bf63-bf09df2709e3}, ! Name of Object 2
  {50663298-0263-4b69-bb0f-7afccb06caf1}, ! Name of Object 3
  {740f36cb-bb35-42f9-8b8e-0479e687e4b7}; ! Name of Object 4

