
OS:Version,
  {feff0096-54ba-442f-818f-b67bb1087fc2}, ! Handle
  0.9.3;                                  ! Version Identifier

OS:Material,
  {eb719e58-e6cb-4b70-86f4-3e74ff1e2833}, ! Handle
  MAT-CC05 8 HW CONCRETE,                 ! Name
  Rough,                                  ! Roughness
  0.20321,                                ! Thickness {m}
  1.311,                                  ! Conductivity {W/m-K}
  2240,                                   ! Density {kg/m3}
  836.8,                                  ! Specific Heat {J/kg-K}
  0.9,                                    ! Thermal Absorptance
  0.7,                                    ! Solar Absorptance
  0.7;                                    ! Visible Absorptance

OS:Construction,
  {2c08c4e1-1e97-4876-be79-ec88f0236f67}, ! Handle
  90.1-2004 Res 1A Exposed Floor Mass,    ! Name
  ,                                       ! Surface Rendering Name
  {eb719e58-e6cb-4b70-86f4-3e74ff1e2833}, ! Layer 1
  {c245aae3-1a65-41a1-8fcf-2f0e1fbd75ea}; ! Layer 2

OS:Material:NoMass,
  {c245aae3-1a65-41a1-8fcf-2f0e1fbd75ea}, ! Handle
  CP02 CARPET PAD,                        ! Name
  VeryRough,                              ! Roughness
  0.21648,                                ! Thermal Resistance {m2-K/W}
  0.9,                                    ! Thermal Absorptance
  0.7,                                    ! Solar Absorptance
  0.8;                                    ! Visible Absorptance

OS:ComponentCost:LineItem,
  {cff5b32f-0d53-4478-9a80-af98074cb6e9}, ! Handle
  90.1-2004 Res 1A Exposed Floor Mass,    ! Name
  ,                                       ! Type
  Construction,                           ! Line Item Type
  90.1-2004 Res 1A Exposed Floor Mass,    ! Item Name
  ,                                       ! Object End Use Key
  ,                                       ! Quantity {dimensionless}
  39.18,                                  ! Material Cost {$}
  CostPerArea;                            ! Material Cost Units

