
OS:Version,
  {55bbbfc9-5f10-4b84-94d3-67180ff05d69}, ! Handle
  0.9.3;                                  ! Version Identifier

OS:Material,
  {1bd9824f-07d7-4714-aeea-edd1ff518f51}, ! Handle
  MAT-CC05 4 HW CONCRETE,                 ! Name
  Rough,                                  ! Roughness
  0.1016,                                 ! Thickness {m}
  1.311,                                  ! Conductivity {W/m-K}
  2240,                                   ! Density {kg/m3}
  836.8,                                  ! Specific Heat {J/kg-K}
  0.9,                                    ! Thermal Absorptance
  0.7,                                    ! Solar Absorptance
  0.7;                                    ! Visible Absorptance

OS:Construction,
  {43f3b21f-b99a-43a4-80fa-003fe4fecb09}, ! Handle
  Title 24-2008 Nonres 6 Ext Slab Unheated - 4in Slab without Carpet, ! Name
  ,                                       ! Surface Rendering Name
  {1bd9824f-07d7-4714-aeea-edd1ff518f51}; ! Layer 1

OS:ComponentCost:LineItem,
  {cdeec140-9a91-4fb9-8de9-ada2fdeb7581}, ! Handle
  Title 24-2008 Nonres 6 Ext Slab Unheated - 4in Slab without Carpet, ! Name
  ,                                       ! Type
  Construction,                           ! Line Item Type
  Title 24-2008 Nonres 6 Ext Slab Unheated - 4in Slab without Carpet, ! Item Name
  ,                                       ! Object End Use Key
  ,                                       ! Quantity {dimensionless}
  45.52,                                  ! Material Cost {$}
  CostPerArea;                            ! Material Cost Units

