
OS:Version,
  {e2835ad2-4fdc-4eb9-b98c-ab549a57cbe8}, ! Handle
  0.9.3;                                  ! Version Identifier

OS:Construction,
  {4e70d4ef-3b7a-47ab-b96b-3ed196ebffe5}, ! Handle
  90.1-2007 Res 3A Int Wall,              ! Name
  ,                                       ! Surface Rendering Name
  {08a32902-8261-4a48-b5d8-8e535c8f5566}, ! Layer 1
  {08a32902-8261-4a48-b5d8-8e535c8f5566}; ! Layer 2

OS:Material,
  {08a32902-8261-4a48-b5d8-8e535c8f5566}, ! Handle
  GP01 1/2 GYPSUM,                        ! Name
  Smooth,                                 ! Roughness
  0.01271,                                ! Thickness {m}
  0.16,                                   ! Conductivity {W/m-K}
  800,                                    ! Density {kg/m3}
  1090,                                   ! Specific Heat {J/kg-K}
  0.9,                                    ! Thermal Absorptance
  0.7,                                    ! Solar Absorptance
  0.5;                                    ! Visible Absorptance

OS:ComponentCost:LineItem,
  {0d70b8cd-848b-4fc9-a099-a4b6d2195629}, ! Handle
  90.1-2007 Res 3A Int Wall,              ! Name
  ,                                       ! Type
  Construction,                           ! Line Item Type
  90.1-2007 Res 3A Int Wall,              ! Item Name
  ,                                       ! Object End Use Key
  ,                                       ! Quantity {dimensionless}
  0,                                      ! Material Cost {$}
  CostPerArea;                            ! Material Cost Units

OS:ComponentData,
  {648e73c0-ffde-498b-85cf-0404d2a1fe3c}, ! Handle
  Component Data 1,                       ! Name
  {e252a40a-abd4-4eba-94e8-eccf3e832a64}, ! UUID
  {315033e7-b7f5-4580-bf40-2c2f163bb783}, ! Version UUID
  1363981842,                             ! Creation Timestamp
  1363981842,                             ! Version Timestamp
  {4e70d4ef-3b7a-47ab-b96b-3ed196ebffe5}, ! Name of Object 1
  {08a32902-8261-4a48-b5d8-8e535c8f5566}, ! Name of Object 2
  {0d70b8cd-848b-4fc9-a099-a4b6d2195629}; ! Name of Object 3

