
OS:Version,
  {90c76cd6-1e89-4f10-b985-eac689e3231f}, ! Handle
  0.9.3;                                  ! Version Identifier

OS:Construction,
  {8c6b84f2-fdac-45b9-837c-4c395361248c}, ! Handle
  90.1-2007 Res 3A Int Wall,              ! Name
  ,                                       ! Surface Rendering Name
  {6547d9f5-71db-40b9-8324-39434077db39}, ! Layer 1
  {6547d9f5-71db-40b9-8324-39434077db39}; ! Layer 2

OS:Material,
  {6547d9f5-71db-40b9-8324-39434077db39}, ! Handle
  GP01 1/2 GYPSUM,                        ! Name
  Smooth,                                 ! Roughness
  0.01271,                                ! Thickness {m}
  0.16,                                   ! Conductivity {W/m-K}
  800,                                    ! Density {kg/m3}
  1090,                                   ! Specific Heat {J/kg-K}
  0.9,                                    ! Thermal Absorptance
  0.7,                                    ! Solar Absorptance
  0.5;                                    ! Visible Absorptance

OS:ComponentCost:LineItem,
  {0e64a1e7-4c40-44d3-92ce-aa3acd8dbbe7}, ! Handle
  90.1-2007 Res 3A Int Wall,              ! Name
  ,                                       ! Type
  Construction,                           ! Line Item Type
  90.1-2007 Res 3A Int Wall,              ! Item Name
  ,                                       ! Object End Use Key
  ,                                       ! Quantity {dimensionless}
  0,                                      ! Material Cost {$}
  CostPerArea;                            ! Material Cost Units

OS:Material,
  {948377b7-1489-45e9-a8e3-cd6584673ec9}, ! Handle
  GP01 1/2 GYPSUM 1,                      ! Name
  Smooth,                                 ! Roughness
  0.01271,                                ! Thickness {m}
  0.16,                                   ! Conductivity {W/m-K}
  800,                                    ! Density {kg/m3}
  1090,                                   ! Specific Heat {J/kg-K}
  0.9,                                    ! Thermal Absorptance
  0.7,                                    ! Solar Absorptance
  0.5;                                    ! Visible Absorptance

