
OS:Version,
  {c228f8ba-9507-4ed5-a7d1-6788b5672aa9}, ! Handle
  0.9.3;                                  ! Version Identifier

OS:Construction,
  {43c450a4-a304-41ce-885a-d582adf5cef6}, ! Handle
  90.1-2007 Res 3A Ext Slab Unheated - 4in Slab without Carpet, ! Name
  ,                                       ! Surface Rendering Name
  {80bf417c-a70d-40e3-b46e-dce6a751e75a}; ! Layer 1

OS:Material,
  {80bf417c-a70d-40e3-b46e-dce6a751e75a}, ! Handle
  MAT-CC05 4 HW CONCRETE,                 ! Name
  Rough,                                  ! Roughness
  0.1016,                                 ! Thickness {m}
  1.311,                                  ! Conductivity {W/m-K}
  2240,                                   ! Density {kg/m3}
  836.8,                                  ! Specific Heat {J/kg-K}
  0.9,                                    ! Thermal Absorptance
  0.7,                                    ! Solar Absorptance
  0.7;                                    ! Visible Absorptance

OS:ComponentCost:LineItem,
  {4cf7bceb-892a-4bf1-a082-29ec54335fb4}, ! Handle
  90.1-2007 Res 3A Ext Slab Unheated - 4in Slab without Carpet, ! Name
  ,                                       ! Type
  Construction,                           ! Line Item Type
  90.1-2007 Res 3A Ext Slab Unheated - 4in Slab without Carpet, ! Item Name
  ,                                       ! Object End Use Key
  ,                                       ! Quantity {dimensionless}
  45.52,                                  ! Material Cost {$}
  CostPerArea;                            ! Material Cost Units

