
OS:Version,
  {15322973-edce-4af0-8f2f-7e20cd104114}, !- Handle
  1.1.0;                                  !- Version Identifier

OS:Construction,
  {e177611d-a176-46e9-8049-76e46dbbbf5f}, !- Handle
  Dbl Grey 6mm/13mm Air,                  !- Name
  ,                                       !- Surface Rendering Name
  {70de484b-75bb-4583-855e-7a6ccc5d918a}, !- Layer 1
  {4efb5a2a-d9c1-43a4-948a-ef6345fffee9}, !- Layer 2
  {d2bba371-0a86-4a3c-b9c6-538338a0e486}; !- Layer 3

OS:WindowMaterial:Glazing,
  {70de484b-75bb-4583-855e-7a6ccc5d918a}, !- Handle
  GREY 6MM,                               !- Name
  SpectralAverage,                        !- Optical Data Type
  ,                                       !- Window Glass Spectral Data Set Name
  0.006,                                  !- Thickness {m}
  0.455,                                  !- Solar Transmittance at Normal Incidence
  0.053,                                  !- Front Side Solar Reflectance at Normal Incidence
  0.053,                                  !- Back Side Solar Reflectance at Normal Incidence
  0.431,                                  !- Visible Transmittance at Normal Incidence
  0.052,                                  !- Front Side Visible Reflectance at Normal Incidence
  0.052,                                  !- Back Side Visible Reflectance at Normal Incidence
  0,                                      !- Infrared Transmittance at Normal Incidence
  0.84,                                   !- Front Side Infrared Hemispherical Emissivity
  0.84,                                   !- Back Side Infrared Hemispherical Emissivity
  0.9;                                    !- Conductivity {W/m-K}

OS:WindowMaterial:Gas,
  {4efb5a2a-d9c1-43a4-948a-ef6345fffee9}, !- Handle
  AIR 13MM,                               !- Name
  Air,                                    !- Gas Type
  0.0127;                                 !- Thickness {m}

OS:WindowMaterial:Glazing,
  {d2bba371-0a86-4a3c-b9c6-538338a0e486}, !- Handle
  CLEAR 6MM,                              !- Name
  SpectralAverage,                        !- Optical Data Type
  ,                                       !- Window Glass Spectral Data Set Name
  0.006,                                  !- Thickness {m}
  0.775,                                  !- Solar Transmittance at Normal Incidence
  0.071,                                  !- Front Side Solar Reflectance at Normal Incidence
  0.071,                                  !- Back Side Solar Reflectance at Normal Incidence
  0.881,                                  !- Visible Transmittance at Normal Incidence
  0.08,                                   !- Front Side Visible Reflectance at Normal Incidence
  0.08,                                   !- Back Side Visible Reflectance at Normal Incidence
  0,                                      !- Infrared Transmittance at Normal Incidence
  0.84,                                   !- Front Side Infrared Hemispherical Emissivity
  0.84,                                   !- Back Side Infrared Hemispherical Emissivity
  0.9;                                    !- Conductivity {W/m-K}

