
OS:Version,
  {ea1692a4-19a9-47ea-9eef-a3eeb3772653}, ! Handle
  0.9.3;                                  ! Version Identifier

OS:Material:NoMass,
  {1c277f8d-eecf-4943-8d95-85b45dfa6db9}, ! Handle
  MAT-SHEATH,                             ! Name
  Rough,                                  ! Roughness
  0.36256,                                ! Thermal Resistance {m2-K/W}
  0.9,                                    ! Thermal Absorptance
  0.7,                                    ! Solar Absorptance
  0.7;                                    ! Visible Absorptance

OS:Construction,
  {b60bc747-c084-49ef-912b-1b2e10ca9cb0}, ! Handle
  Title 24-2008 Nonres 1 Ext Wall Steel-Framed, ! Name
  ,                                       ! Surface Rendering Name
  {1c277f8d-eecf-4943-8d95-85b45dfa6db9}, ! Layer 1
  {dd9eceae-216d-4ce3-9527-a6ccc9665fcc}, ! Layer 2
  {3c5284b9-12fb-4d86-a1c7-429029eabea6}; ! Layer 3

OS:Material,
  {dd9eceae-216d-4ce3-9527-a6ccc9665fcc}, ! Handle
  Wall Insulation [159],                  ! Name
  MediumRough,                            ! Roughness
  0.0812,                                 ! Thickness {m}
  0.045,                                  ! Conductivity {W/m-K}
  265,                                    ! Density {kg/m3}
  836.8,                                  ! Specific Heat {J/kg-K}
  0.9,                                    ! Thermal Absorptance
  0.7,                                    ! Solar Absorptance
  0.7;                                    ! Visible Absorptance

OS:Material,
  {3c5284b9-12fb-4d86-a1c7-429029eabea6}, ! Handle
  1/2IN Gypsum,                           ! Name
  Smooth,                                 ! Roughness
  0.01271,                                ! Thickness {m}
  0.16,                                   ! Conductivity {W/m-K}
  784.9,                                  ! Density {kg/m3}
  830,                                    ! Specific Heat {J/kg-K}
  0.9,                                    ! Thermal Absorptance
  0.92,                                   ! Solar Absorptance
  0.92;                                   ! Visible Absorptance

OS:ComponentCost:LineItem,
  {4749f3ee-5210-4592-928f-09a5fd065f5d}, ! Handle
  Title 24-2008 Nonres 1 Ext Wall Steel-Framed, ! Name
  ,                                       ! Type
  Construction,                           ! Line Item Type
  Title 24-2008 Nonres 1 Ext Wall Steel-Framed, ! Item Name
  ,                                       ! Object End Use Key
  ,                                       ! Quantity {dimensionless}
  155.805,                                ! Material Cost {$}
  CostPerArea;                            ! Material Cost Units

