
OS:Version,
  {3eddc132-9731-4772-94b6-3d5670e5ead2}, ! Handle
  0.9.3;                                  ! Version Identifier

OS:Construction,
  {f8c08e34-3deb-4f38-8510-957e68bec868}, ! Handle
  Title 24-2008 Nonres 1 Ext Wall Steel-Framed, ! Name
  ,                                       ! Surface Rendering Name
  {5ddb0532-5ee7-4463-adb6-25375dfa8bfe}, ! Layer 1
  {320458aa-991a-4fe4-987a-130127aa123a}, ! Layer 2
  {acc8b027-7055-4a75-bc5f-a092983f2574}; ! Layer 3

OS:Material:NoMass,
  {5ddb0532-5ee7-4463-adb6-25375dfa8bfe}, ! Handle
  MAT-SHEATH,                             ! Name
  Rough,                                  ! Roughness
  0.36256,                                ! Thermal Resistance {m2-K/W}
  0.9,                                    ! Thermal Absorptance
  0.7,                                    ! Solar Absorptance
  0.7;                                    ! Visible Absorptance

OS:Material,
  {320458aa-991a-4fe4-987a-130127aa123a}, ! Handle
  Wall Insulation [159],                  ! Name
  MediumRough,                            ! Roughness
  0.0812,                                 ! Thickness {m}
  0.045,                                  ! Conductivity {W/m-K}
  265,                                    ! Density {kg/m3}
  836.8,                                  ! Specific Heat {J/kg-K}
  0.9,                                    ! Thermal Absorptance
  0.7,                                    ! Solar Absorptance
  0.7;                                    ! Visible Absorptance

OS:Material,
  {acc8b027-7055-4a75-bc5f-a092983f2574}, ! Handle
  1/2IN Gypsum,                           ! Name
  Smooth,                                 ! Roughness
  0.01271,                                ! Thickness {m}
  0.16,                                   ! Conductivity {W/m-K}
  784.9,                                  ! Density {kg/m3}
  830,                                    ! Specific Heat {J/kg-K}
  0.9,                                    ! Thermal Absorptance
  0.92,                                   ! Solar Absorptance
  0.92;                                   ! Visible Absorptance

OS:ComponentCost:LineItem,
  {9b807829-0e74-4cbe-bee9-9c69a3a1fc97}, ! Handle
  Title 24-2008 Nonres 1 Ext Wall Steel-Framed, ! Name
  ,                                       ! Type
  Construction,                           ! Line Item Type
  Title 24-2008 Nonres 1 Ext Wall Steel-Framed, ! Item Name
  ,                                       ! Object End Use Key
  ,                                       ! Quantity {dimensionless}
  155.805,                                ! Material Cost {$}
  CostPerArea;                            ! Material Cost Units

OS:ComponentData,
  {f445c59d-92cf-4f5d-aff3-98d7010b9b55}, ! Handle
  Component Data 1,                       ! Name
  {dbb1a9a4-c72c-4166-973b-79554be844a6}, ! UUID
  {97d30399-851b-4917-a1b4-70ccbe438f6f}, ! Version UUID
  1363981981,                             ! Creation Timestamp
  1363981981,                             ! Version Timestamp
  {f8c08e34-3deb-4f38-8510-957e68bec868}, ! Name of Object 1
  {5ddb0532-5ee7-4463-adb6-25375dfa8bfe}, ! Name of Object 2
  {320458aa-991a-4fe4-987a-130127aa123a}, ! Name of Object 3
  {acc8b027-7055-4a75-bc5f-a092983f2574}, ! Name of Object 4
  {9b807829-0e74-4cbe-bee9-9c69a3a1fc97}; ! Name of Object 5

