
OS:Version,
  {a19d9150-1b90-4972-b97b-d75594f6415f}, ! Handle
  0.9.3;                                  ! Version Identifier

OS:Construction,
  {6f57bd16-d832-4bd4-8741-9f436486a5c9}, ! Handle
  90.1-2001 Res B8 Ext Wall Metal Building, ! Name
  ,                                       ! Surface Rendering Name
  {b2a43a73-033b-4494-b55d-1dfda43b8f2d}, ! Layer 1
  {86906e0a-1904-4585-859d-bbc493cdd377}, ! Layer 2
  {5cfc60fd-d3e1-4db9-9ec5-bbc1c8a4181c}; ! Layer 3

OS:Material,
  {b2a43a73-033b-4494-b55d-1dfda43b8f2d}, ! Handle
  Metal Siding,                           ! Name
  Smooth,                                 ! Roughness
  0.0015,                                 ! Thickness {m}
  44.96,                                  ! Conductivity {W/m-K}
  7688.86,                                ! Density {kg/m3}
  410,                                    ! Specific Heat {J/kg-K}
  0.9,                                    ! Thermal Absorptance
  0.2,                                    ! Solar Absorptance
  0.2;                                    ! Visible Absorptance

OS:Material,
  {86906e0a-1904-4585-859d-bbc493cdd377}, ! Handle
  Wall Insulation,                        ! Name
  MediumRough,                            ! Roughness
  0.0598725,                              ! Thickness {m}
  0.045,                                  ! Conductivity {W/m-K}
  265,                                    ! Density {kg/m3}
  836.8,                                  ! Specific Heat {J/kg-K}
  0.9,                                    ! Thermal Absorptance
  0.7,                                    ! Solar Absorptance
  0.7;                                    ! Visible Absorptance

OS:Material,
  {5cfc60fd-d3e1-4db9-9ec5-bbc1c8a4181c}, ! Handle
  1/2IN Gypsum,                           ! Name
  Smooth,                                 ! Roughness
  0.01271,                                ! Thickness {m}
  0.16,                                   ! Conductivity {W/m-K}
  784.9,                                  ! Density {kg/m3}
  830,                                    ! Specific Heat {J/kg-K}
  0.9,                                    ! Thermal Absorptance
  0.92,                                   ! Solar Absorptance
  0.92;                                   ! Visible Absorptance

OS:ComponentCost:LineItem,
  {4fd86a3a-c5db-45ed-82d0-29482eb5b5ec}, ! Handle
  90.1-2001 Res B8 Ext Wall Metal Building, ! Name
  ,                                       ! Type
  Construction,                           ! Line Item Type
  90.1-2001 Res B8 Ext Wall Metal Building, ! Item Name
  ,                                       ! Object End Use Key
  ,                                       ! Quantity {dimensionless}
  98.78,                                  ! Material Cost {$}
  CostPerArea;                            ! Material Cost Units

OS:ComponentData,
  {359f3242-9282-402b-82f7-ac8c27e9fa0f}, ! Handle
  Component Data 1,                       ! Name
  {7aaf5486-b4c6-4c40-8c37-7e57bbaf3b57}, ! UUID
  {1ff9f810-57ad-469a-94df-4d492029df3b}, ! Version UUID
  1363981489,                             ! Creation Timestamp
  1363981489,                             ! Version Timestamp
  {6f57bd16-d832-4bd4-8741-9f436486a5c9}, ! Name of Object 1
  {b2a43a73-033b-4494-b55d-1dfda43b8f2d}, ! Name of Object 2
  {86906e0a-1904-4585-859d-bbc493cdd377}, ! Name of Object 3
  {5cfc60fd-d3e1-4db9-9ec5-bbc1c8a4181c}, ! Name of Object 4
  {4fd86a3a-c5db-45ed-82d0-29482eb5b5ec}; ! Name of Object 5

