
OS:Version,
  {7153cd71-5e83-4adc-8ad4-7a3bc69b4bdb}, ! Handle
  0.9.3;                                  ! Version Identifier

OS:Material,
  {23c91692-f8c2-4d04-8159-da9c5518944c}, ! Handle
  1/2IN Gypsum,                           ! Name
  Smooth,                                 ! Roughness
  0.01271,                                ! Thickness {m}
  0.16,                                   ! Conductivity {W/m-K}
  784.9,                                  ! Density {kg/m3}
  830,                                    ! Specific Heat {J/kg-K}
  0.9,                                    ! Thermal Absorptance
  0.92,                                   ! Solar Absorptance
  0.92;                                   ! Visible Absorptance

OS:ComponentCost:LineItem,
  {57c169db-b069-4585-ba40-297290c528e4}, ! Handle
  90.1-2001 Res B8 Ext Wall Metal Building, ! Name
  ,                                       ! Type
  Construction,                           ! Line Item Type
  90.1-2001 Res B8 Ext Wall Metal Building, ! Item Name
  ,                                       ! Object End Use Key
  ,                                       ! Quantity {dimensionless}
  98.78,                                  ! Material Cost {$}
  CostPerArea;                            ! Material Cost Units

OS:Material,
  {9eed2cdc-7a0e-41eb-86f3-4e7cbf06cb1c}, ! Handle
  Wall Insulation,                        ! Name
  MediumRough,                            ! Roughness
  0.0598725,                              ! Thickness {m}
  0.045,                                  ! Conductivity {W/m-K}
  265,                                    ! Density {kg/m3}
  836.8,                                  ! Specific Heat {J/kg-K}
  0.9,                                    ! Thermal Absorptance
  0.7,                                    ! Solar Absorptance
  0.7;                                    ! Visible Absorptance

OS:Material,
  {dc479533-278f-483a-9266-7148484fd11e}, ! Handle
  Metal Siding,                           ! Name
  Smooth,                                 ! Roughness
  0.0015,                                 ! Thickness {m}
  44.96,                                  ! Conductivity {W/m-K}
  7688.86,                                ! Density {kg/m3}
  410,                                    ! Specific Heat {J/kg-K}
  0.9,                                    ! Thermal Absorptance
  0.2,                                    ! Solar Absorptance
  0.2;                                    ! Visible Absorptance

OS:Construction,
  {3e165ec6-63d0-428f-9589-74fabbc55e1a}, ! Handle
  90.1-2001 Res B8 Ext Wall Metal Building, ! Name
  ,                                       ! Surface Rendering Name
  {dc479533-278f-483a-9266-7148484fd11e}, ! Layer 1
  {9eed2cdc-7a0e-41eb-86f3-4e7cbf06cb1c}, ! Layer 2
  {23c91692-f8c2-4d04-8159-da9c5518944c}; ! Layer 3

