
OS:Version,
  {ead3695e-bcaf-42e4-be04-362cf950b330}, ! Handle
  0.9.3;                                  ! Version Identifier

OS:Material,
  {52e13a6c-00f0-4674-ac9f-c9773b146cca}, ! Handle
  MAT-CC05 4 HW CONCRETE,                 ! Name
  Rough,                                  ! Roughness
  0.1016,                                 ! Thickness {m}
  1.311,                                  ! Conductivity {W/m-K}
  2240,                                   ! Density {kg/m3}
  836.8,                                  ! Specific Heat {J/kg-K}
  0.9,                                    ! Thermal Absorptance
  0.7,                                    ! Solar Absorptance
  0.7;                                    ! Visible Absorptance

OS:Construction,
  {7bb8abb9-0f4e-4d95-8a25-8a216160182b}, ! Handle
  90.1-1999 Res B14 Ext Slab Unheated - 4in Slab without Carpet, ! Name
  ,                                       ! Surface Rendering Name
  {52e13a6c-00f0-4674-ac9f-c9773b146cca}; ! Layer 1

OS:ComponentCost:LineItem,
  {1657d1a8-175b-4a5e-a7a8-40076c73cca9}, ! Handle
  90.1-1999 Res B14 Ext Slab Unheated - 4in Slab without Carpet, ! Name
  ,                                       ! Type
  Construction,                           ! Line Item Type
  90.1-1999 Res B14 Ext Slab Unheated - 4in Slab without Carpet, ! Item Name
  ,                                       ! Object End Use Key
  ,                                       ! Quantity {dimensionless}
  45.52,                                  ! Material Cost {$}
  CostPerArea;                            ! Material Cost Units

