
OS:Version,
  {37f80107-e6e3-4143-9e82-87fd90ba93b8}, ! Handle
  0.9.3;                                  ! Version Identifier

OS:ComponentCost:LineItem,
  {67b670ba-5c80-45a4-a871-493f5b7acc17}, ! Handle
  90.1-2001 Res B26 Ext Wall Mass,        ! Name
  ,                                       ! Type
  Construction,                           ! Line Item Type
  90.1-2001 Res B26 Ext Wall Mass,        ! Item Name
  ,                                       ! Object End Use Key
  ,                                       ! Quantity {dimensionless}
  70.253,                                 ! Material Cost {$}
  CostPerArea;                            ! Material Cost Units

OS:Material,
  {5cb5280f-bc24-49c4-a986-328bdf51df35}, ! Handle
  1/2IN Gypsum,                           ! Name
  Smooth,                                 ! Roughness
  0.01271,                                ! Thickness {m}
  0.16,                                   ! Conductivity {W/m-K}
  784.9,                                  ! Density {kg/m3}
  830,                                    ! Specific Heat {J/kg-K}
  0.9,                                    ! Thermal Absorptance
  0.92,                                   ! Solar Absorptance
  0.92;                                   ! Visible Absorptance

OS:Material,
  {1673cbbd-7d52-43f2-9bd3-c24fb9f13965}, ! Handle
  Wall Insulation [14],                   ! Name
  MediumRough,                            ! Roughness
  0.0905233,                              ! Thickness {m}
  0.0432,                                 ! Conductivity {W/m-K}
  91,                                     ! Density {kg/m3}
  837,                                    ! Specific Heat {J/kg-K}
  0.9,                                    ! Thermal Absorptance
  0.5,                                    ! Solar Absorptance
  0.5;                                    ! Visible Absorptance

OS:Construction,
  {0c25cf0a-6e9a-4de9-aa5d-c7a8045a406a}, ! Handle
  90.1-2001 Res B26 Ext Wall Mass,        ! Name
  ,                                       ! Surface Rendering Name
  {d657fdb9-785a-425e-a6a2-5cb693712c6b}, ! Layer 1
  {bacd9b23-bbf6-4987-bd24-d910a75512d2}, ! Layer 2
  {1673cbbd-7d52-43f2-9bd3-c24fb9f13965}, ! Layer 3
  {5cb5280f-bc24-49c4-a986-328bdf51df35}; ! Layer 4

OS:Material,
  {d657fdb9-785a-425e-a6a2-5cb693712c6b}, ! Handle
  1IN Stucco,                             ! Name
  Smooth,                                 ! Roughness
  0.0253,                                 ! Thickness {m}
  0.6918,                                 ! Conductivity {W/m-K}
  1858,                                   ! Density {kg/m3}
  837,                                    ! Specific Heat {J/kg-K}
  0.9,                                    ! Thermal Absorptance
  0.92,                                   ! Solar Absorptance
  0.92;                                   ! Visible Absorptance

OS:Material,
  {bacd9b23-bbf6-4987-bd24-d910a75512d2}, ! Handle
  8IN Concrete HW,                        ! Name
  MediumRough,                            ! Roughness
  0.2033,                                 ! Thickness {m}
  1.7296,                                 ! Conductivity {W/m-K}
  2243,                                   ! Density {kg/m3}
  837,                                    ! Specific Heat {J/kg-K}
  0.9,                                    ! Thermal Absorptance
  0.65,                                   ! Solar Absorptance
  0.65;                                   ! Visible Absorptance

