
OS:Version,
  {35a9d3a8-d78e-4dfb-8f92-56b6fcef1ae5}, ! Handle
  0.9.3;                                  ! Version Identifier

OS:Construction,
  {5750857a-3a8f-4437-8068-423363bf3ca0}, ! Handle
  Title 24-2008 Nonres 16 Exposed Floor Mass, ! Name
  ,                                       ! Surface Rendering Name
  {133b0cf7-4137-4a3a-88e9-3570ce5b2efd}, ! Layer 1
  {9ab8b7b3-bc83-4a77-9f31-d0e726dd7386}, ! Layer 2
  {4f17982a-f634-49e2-b4b6-d19204a9fbee}; ! Layer 3

OS:Material,
  {133b0cf7-4137-4a3a-88e9-3570ce5b2efd}, ! Handle
  Floor Insulation [57],                  ! Name
  MediumRough,                            ! Roughness
  0.109029,                               ! Thickness {m}
  0.045,                                  ! Conductivity {W/m-K}
  265,                                    ! Density {kg/m3}
  836.8,                                  ! Specific Heat {J/kg-K}
  0.9,                                    ! Thermal Absorptance
  0.7,                                    ! Solar Absorptance
  0.7;                                    ! Visible Absorptance

OS:Material,
  {9ab8b7b3-bc83-4a77-9f31-d0e726dd7386}, ! Handle
  MAT-CC05 8 HW CONCRETE,                 ! Name
  Rough,                                  ! Roughness
  0.20321,                                ! Thickness {m}
  1.311,                                  ! Conductivity {W/m-K}
  2240,                                   ! Density {kg/m3}
  836.8,                                  ! Specific Heat {J/kg-K}
  0.9,                                    ! Thermal Absorptance
  0.7,                                    ! Solar Absorptance
  0.7;                                    ! Visible Absorptance

OS:Material:NoMass,
  {4f17982a-f634-49e2-b4b6-d19204a9fbee}, ! Handle
  CP02 CARPET PAD,                        ! Name
  VeryRough,                              ! Roughness
  0.21648,                                ! Thermal Resistance {m2-K/W}
  0.9,                                    ! Thermal Absorptance
  0.7,                                    ! Solar Absorptance
  0.8;                                    ! Visible Absorptance

OS:ComponentCost:LineItem,
  {c170717a-eb4e-4800-95c2-a349fbc2428f}, ! Handle
  Title 24-2008 Nonres 16 Exposed Floor Mass, ! Name
  ,                                       ! Type
  Construction,                           ! Line Item Type
  Title 24-2008 Nonres 16 Exposed Floor Mass, ! Item Name
  ,                                       ! Object End Use Key
  ,                                       ! Quantity {dimensionless}
  55.977,                                 ! Material Cost {$}
  CostPerArea;                            ! Material Cost Units

