
OS:Version,
  {6b467734-6259-455b-bdc6-4ba8dfb049de}, ! Handle
  0.9.3;                                  ! Version Identifier

OS:ComponentCost:LineItem,
  {4123bc16-1599-4d90-b590-ee4e9fa49946}, ! Handle
  90.1 Constructions Ext Wall Metal Building NR, ! Name
  ,                                       ! Type
  Construction,                           ! Line Item Type
  90.1 Constructions Ext Wall Metal Building NR, ! Item Name
  ,                                       ! Object End Use Key
  ,                                       ! Quantity {dimensionless}
  96.41,                                  ! Material Cost {$}
  CostPerArea;                            ! Material Cost Units

OS:Material,
  {6b2a0203-0887-4432-ac9f-ee83680a9095}, ! Handle
  Metal Siding,                           ! Name
  Smooth,                                 ! Roughness
  0.0015,                                 ! Thickness {m}
  44.96,                                  ! Conductivity {W/m-K}
  7688.86,                                ! Density {kg/m3}
  410,                                    ! Specific Heat {J/kg-K}
  0.9,                                    ! Thermal Absorptance
  0.2,                                    ! Solar Absorptance
  0.2;                                    ! Visible Absorptance

OS:Material,
  {e63580ab-b345-46ad-962f-8b05d593ebff}, ! Handle
  1/2IN Gypsum,                           ! Name
  Smooth,                                 ! Roughness
  0.01271,                                ! Thickness {m}
  0.16,                                   ! Conductivity {W/m-K}
  784.9,                                  ! Density {kg/m3}
  830,                                    ! Specific Heat {J/kg-K}
  0.9,                                    ! Thermal Absorptance
  0.92,                                   ! Solar Absorptance
  0.92;                                   ! Visible Absorptance

OS:Construction,
  {c27ec74b-a539-4860-a25c-b9679144b296}, ! Handle
  90.1 Constructions Ext Wall Metal Building NR, ! Name
  ,                                       ! Surface Rendering Name
  {6b2a0203-0887-4432-ac9f-ee83680a9095}, ! Layer 1
  {e63580ab-b345-46ad-962f-8b05d593ebff}; ! Layer 2

