
OS:Version,
  {56ed53af-6cc4-40d5-b52d-263c5c15f863}, ! Handle
  0.9.3;                                  ! Version Identifier

OS:Construction,
  {f84b9a49-6ba1-4edf-aca1-1bc85e6343b4}, ! Handle
  90.1-2001 Nonres B8 Ext Wall Mass,      ! Name
  ,                                       ! Surface Rendering Name
  {fcd61da3-f23f-43ac-b416-d0e315225d13}, ! Layer 1
  {ad1a1b32-8f83-4a60-8d00-93ce6824ffa2}, ! Layer 2
  {57e78b51-a753-4b88-9596-2e70cb4c0078}; ! Layer 3

OS:Material,
  {fcd61da3-f23f-43ac-b416-d0e315225d13}, ! Handle
  1IN Stucco,                             ! Name
  Smooth,                                 ! Roughness
  0.0253,                                 ! Thickness {m}
  0.6918,                                 ! Conductivity {W/m-K}
  1858,                                   ! Density {kg/m3}
  837,                                    ! Specific Heat {J/kg-K}
  0.9,                                    ! Thermal Absorptance
  0.92,                                   ! Solar Absorptance
  0.92;                                   ! Visible Absorptance

OS:Material,
  {ad1a1b32-8f83-4a60-8d00-93ce6824ffa2}, ! Handle
  8IN Concrete HW,                        ! Name
  MediumRough,                            ! Roughness
  0.2033,                                 ! Thickness {m}
  1.7296,                                 ! Conductivity {W/m-K}
  2243,                                   ! Density {kg/m3}
  837,                                    ! Specific Heat {J/kg-K}
  0.9,                                    ! Thermal Absorptance
  0.65,                                   ! Solar Absorptance
  0.65;                                   ! Visible Absorptance

OS:Material,
  {57e78b51-a753-4b88-9596-2e70cb4c0078}, ! Handle
  1/2IN Gypsum,                           ! Name
  Smooth,                                 ! Roughness
  0.01271,                                ! Thickness {m}
  0.16,                                   ! Conductivity {W/m-K}
  784.9,                                  ! Density {kg/m3}
  830,                                    ! Specific Heat {J/kg-K}
  0.9,                                    ! Thermal Absorptance
  0.92,                                   ! Solar Absorptance
  0.92;                                   ! Visible Absorptance

OS:ComponentCost:LineItem,
  {d3b3fe0a-dda4-47af-abb3-c1dd753b0d4c}, ! Handle
  90.1-2001 Nonres B8 Ext Wall Mass,      ! Name
  ,                                       ! Type
  Construction,                           ! Line Item Type
  90.1-2001 Nonres B8 Ext Wall Mass,      ! Item Name
  ,                                       ! Object End Use Key
  ,                                       ! Quantity {dimensionless}
  41.397,                                 ! Material Cost {$}
  CostPerArea;                            ! Material Cost Units

OS:ComponentData,
  {561e9566-ffa7-4e0e-80eb-7425c0a4c2ea}, ! Handle
  Component Data 1,                       ! Name
  {d4f0f770-acec-451f-9c75-241b46de65f6}, ! UUID
  {2fa42204-6170-4b85-ba73-ee4edee5d141}, ! Version UUID
  1363981327,                             ! Creation Timestamp
  1363981327,                             ! Version Timestamp
  {f84b9a49-6ba1-4edf-aca1-1bc85e6343b4}, ! Name of Object 1
  {fcd61da3-f23f-43ac-b416-d0e315225d13}, ! Name of Object 2
  {ad1a1b32-8f83-4a60-8d00-93ce6824ffa2}, ! Name of Object 3
  {57e78b51-a753-4b88-9596-2e70cb4c0078}, ! Name of Object 4
  {d3b3fe0a-dda4-47af-abb3-c1dd753b0d4c}; ! Name of Object 5

