
OS:Version,
  {0aa58ec1-adf3-4be1-8e11-ed40f4722bc8}, ! Handle
  0.9.3;                                  ! Version Identifier

OS:Material,
  {cbc49f9a-2665-4692-9f93-d51cdd59747e}, ! Handle
  8IN Concrete HW,                        ! Name
  MediumRough,                            ! Roughness
  0.2033,                                 ! Thickness {m}
  1.7296,                                 ! Conductivity {W/m-K}
  2243,                                   ! Density {kg/m3}
  837,                                    ! Specific Heat {J/kg-K}
  0.9,                                    ! Thermal Absorptance
  0.65,                                   ! Solar Absorptance
  0.65;                                   ! Visible Absorptance

OS:Material,
  {21ba1a99-1dfb-40ba-b97e-a741b33fd0c0}, ! Handle
  1IN Stucco,                             ! Name
  Smooth,                                 ! Roughness
  0.0253,                                 ! Thickness {m}
  0.6918,                                 ! Conductivity {W/m-K}
  1858,                                   ! Density {kg/m3}
  837,                                    ! Specific Heat {J/kg-K}
  0.9,                                    ! Thermal Absorptance
  0.92,                                   ! Solar Absorptance
  0.92;                                   ! Visible Absorptance

OS:Construction,
  {96bbfb03-e347-4aae-a595-7d869611d0cc}, ! Handle
  90.1-2001 Nonres B8 Ext Wall Mass,      ! Name
  ,                                       ! Surface Rendering Name
  {21ba1a99-1dfb-40ba-b97e-a741b33fd0c0}, ! Layer 1
  {cbc49f9a-2665-4692-9f93-d51cdd59747e}, ! Layer 2
  {a3739d29-946d-4ee1-9845-dd11d54479b1}; ! Layer 3

OS:Material,
  {a3739d29-946d-4ee1-9845-dd11d54479b1}, ! Handle
  1/2IN Gypsum,                           ! Name
  Smooth,                                 ! Roughness
  0.01271,                                ! Thickness {m}
  0.16,                                   ! Conductivity {W/m-K}
  784.9,                                  ! Density {kg/m3}
  830,                                    ! Specific Heat {J/kg-K}
  0.9,                                    ! Thermal Absorptance
  0.92,                                   ! Solar Absorptance
  0.92;                                   ! Visible Absorptance

OS:ComponentCost:LineItem,
  {ff7905ce-f8ad-4462-a34f-6583b49d6dd7}, ! Handle
  90.1-2001 Nonres B8 Ext Wall Mass,      ! Name
  ,                                       ! Type
  Construction,                           ! Line Item Type
  90.1-2001 Nonres B8 Ext Wall Mass,      ! Item Name
  ,                                       ! Object End Use Key
  ,                                       ! Quantity {dimensionless}
  41.397,                                 ! Material Cost {$}
  CostPerArea;                            ! Material Cost Units

