
OS:Version,
  {dcc81d02-d852-4f73-864c-2cb00062204f}, ! Handle
  0.9.3;                                  ! Version Identifier

OS:Material,
  {d245a300-9b90-4dce-a415-c71ca6c50e6c}, ! Handle
  Wall Insulation,                        ! Name
  MediumRough,                            ! Roughness
  0.0598725,                              ! Thickness {m}
  0.045,                                  ! Conductivity {W/m-K}
  265,                                    ! Density {kg/m3}
  836.8,                                  ! Specific Heat {J/kg-K}
  0.9,                                    ! Thermal Absorptance
  0.7,                                    ! Solar Absorptance
  0.7;                                    ! Visible Absorptance

OS:ComponentCost:LineItem,
  {a717dbb2-edfe-4206-9f13-e3f5e9b8001a}, ! Handle
  90.1-1999 Res B7 Ext Wall Metal Building, ! Name
  ,                                       ! Type
  Construction,                           ! Line Item Type
  90.1-1999 Res B7 Ext Wall Metal Building, ! Item Name
  ,                                       ! Object End Use Key
  ,                                       ! Quantity {dimensionless}
  98.78,                                  ! Material Cost {$}
  CostPerArea;                            ! Material Cost Units

OS:Construction,
  {adfe2d1c-3e50-46fa-9a54-9560c2a31af9}, ! Handle
  90.1-1999 Res B7 Ext Wall Metal Building, ! Name
  ,                                       ! Surface Rendering Name
  {1db55eab-8d89-4a8c-ba5f-d65b97c313a2}, ! Layer 1
  {d245a300-9b90-4dce-a415-c71ca6c50e6c}, ! Layer 2
  {a10b79f4-a9ae-4d1b-a3a9-9fee6d3b2fbc}; ! Layer 3

OS:Material,
  {1db55eab-8d89-4a8c-ba5f-d65b97c313a2}, ! Handle
  Metal Siding,                           ! Name
  Smooth,                                 ! Roughness
  0.0015,                                 ! Thickness {m}
  44.96,                                  ! Conductivity {W/m-K}
  7688.86,                                ! Density {kg/m3}
  410,                                    ! Specific Heat {J/kg-K}
  0.9,                                    ! Thermal Absorptance
  0.2,                                    ! Solar Absorptance
  0.2;                                    ! Visible Absorptance

OS:Material,
  {a10b79f4-a9ae-4d1b-a3a9-9fee6d3b2fbc}, ! Handle
  1/2IN Gypsum,                           ! Name
  Smooth,                                 ! Roughness
  0.01271,                                ! Thickness {m}
  0.16,                                   ! Conductivity {W/m-K}
  784.9,                                  ! Density {kg/m3}
  830,                                    ! Specific Heat {J/kg-K}
  0.9,                                    ! Thermal Absorptance
  0.92,                                   ! Solar Absorptance
  0.92;                                   ! Visible Absorptance

