
OS:Version,
  {714be883-b167-440f-a2d6-e1349ad13c0f}, ! Handle
  0.9.3;                                  ! Version Identifier

OS:Construction,
  {13afdccd-2f7c-44e5-81c3-6281e4bfa3fb}, ! Handle
  90.1-1999 Nonres B22 Ext Wall Steel-Framed, ! Name
  ,                                       ! Surface Rendering Name
  {4298b851-28c9-4e65-bb3c-c3548e6f60a2}, ! Layer 1
  {e677581d-a71c-4420-85cf-df791b3d9fab}, ! Layer 2
  {74310985-1372-4ad0-9eed-0bd9dc21beee}; ! Layer 3

OS:Material:NoMass,
  {4298b851-28c9-4e65-bb3c-c3548e6f60a2}, ! Handle
  MAT-SHEATH,                             ! Name
  Rough,                                  ! Roughness
  0.36256,                                ! Thermal Resistance {m2-K/W}
  0.9,                                    ! Thermal Absorptance
  0.7,                                    ! Solar Absorptance
  0.7;                                    ! Visible Absorptance

OS:Material,
  {e677581d-a71c-4420-85cf-df791b3d9fab}, ! Handle
  Wall Insulation [10],                   ! Name
  MediumRough,                            ! Roughness
  0.0971136,                              ! Thickness {m}
  0.045,                                  ! Conductivity {W/m-K}
  265,                                    ! Density {kg/m3}
  836.8,                                  ! Specific Heat {J/kg-K}
  0.9,                                    ! Thermal Absorptance
  0.7,                                    ! Solar Absorptance
  0.7;                                    ! Visible Absorptance

OS:Material,
  {74310985-1372-4ad0-9eed-0bd9dc21beee}, ! Handle
  1/2IN Gypsum,                           ! Name
  Smooth,                                 ! Roughness
  0.01271,                                ! Thickness {m}
  0.16,                                   ! Conductivity {W/m-K}
  784.9,                                  ! Density {kg/m3}
  830,                                    ! Specific Heat {J/kg-K}
  0.9,                                    ! Thermal Absorptance
  0.92,                                   ! Solar Absorptance
  0.92;                                   ! Visible Absorptance

OS:ComponentCost:LineItem,
  {6b02e5c2-4174-44df-9c92-400159fd6cdd}, ! Handle
  90.1-1999 Nonres B22 Ext Wall Steel-Framed, ! Name
  ,                                       ! Type
  Construction,                           ! Line Item Type
  90.1-1999 Nonres B22 Ext Wall Steel-Framed, ! Item Name
  ,                                       ! Object End Use Key
  ,                                       ! Quantity {dimensionless}
  94.657,                                 ! Material Cost {$}
  CostPerArea;                            ! Material Cost Units

OS:ComponentData,
  {d85af5f0-3b77-4110-ad6e-164590a651b4}, ! Handle
  Component Data 1,                       ! Name
  {783cd1b9-c4ee-4f35-b790-14e72d8fd7c4}, ! UUID
  {d9356eef-a966-410c-aaaa-96ebc017736b}, ! Version UUID
  1363981138,                             ! Creation Timestamp
  1363981138,                             ! Version Timestamp
  {13afdccd-2f7c-44e5-81c3-6281e4bfa3fb}, ! Name of Object 1
  {4298b851-28c9-4e65-bb3c-c3548e6f60a2}, ! Name of Object 2
  {e677581d-a71c-4420-85cf-df791b3d9fab}, ! Name of Object 3
  {74310985-1372-4ad0-9eed-0bd9dc21beee}, ! Name of Object 4
  {6b02e5c2-4174-44df-9c92-400159fd6cdd}; ! Name of Object 5

