
OS:Version,
  {30a095a2-a76d-4c3d-9e1d-cd07e68c3ff7}, ! Handle
  0.9.3;                                  ! Version Identifier

OS:Material,
  {f580724e-4b2a-4a43-b4d7-5b93ff8e9b40}, ! Handle
  Wall Insulation [10],                   ! Name
  MediumRough,                            ! Roughness
  0.0971136,                              ! Thickness {m}
  0.045,                                  ! Conductivity {W/m-K}
  265,                                    ! Density {kg/m3}
  836.8,                                  ! Specific Heat {J/kg-K}
  0.9,                                    ! Thermal Absorptance
  0.7,                                    ! Solar Absorptance
  0.7;                                    ! Visible Absorptance

OS:Construction,
  {29c90356-db87-4840-b93b-bf131ff3702c}, ! Handle
  90.1-1999 Nonres B22 Ext Wall Steel-Framed, ! Name
  ,                                       ! Surface Rendering Name
  {1cdaefee-7029-40ef-bd30-1fe64eebdbf1}, ! Layer 1
  {f580724e-4b2a-4a43-b4d7-5b93ff8e9b40}, ! Layer 2
  {9638337d-fa03-4dae-8202-30c572af83bf}; ! Layer 3

OS:Material:NoMass,
  {1cdaefee-7029-40ef-bd30-1fe64eebdbf1}, ! Handle
  MAT-SHEATH,                             ! Name
  Rough,                                  ! Roughness
  0.36256,                                ! Thermal Resistance {m2-K/W}
  0.9,                                    ! Thermal Absorptance
  0.7,                                    ! Solar Absorptance
  0.7;                                    ! Visible Absorptance

OS:Material,
  {9638337d-fa03-4dae-8202-30c572af83bf}, ! Handle
  1/2IN Gypsum,                           ! Name
  Smooth,                                 ! Roughness
  0.01271,                                ! Thickness {m}
  0.16,                                   ! Conductivity {W/m-K}
  784.9,                                  ! Density {kg/m3}
  830,                                    ! Specific Heat {J/kg-K}
  0.9,                                    ! Thermal Absorptance
  0.92,                                   ! Solar Absorptance
  0.92;                                   ! Visible Absorptance

OS:ComponentCost:LineItem,
  {010b8b99-fc30-4160-8b58-6e63bcac28d1}, ! Handle
  90.1-1999 Nonres B22 Ext Wall Steel-Framed, ! Name
  ,                                       ! Type
  Construction,                           ! Line Item Type
  90.1-1999 Nonres B22 Ext Wall Steel-Framed, ! Item Name
  ,                                       ! Object End Use Key
  ,                                       ! Quantity {dimensionless}
  94.657,                                 ! Material Cost {$}
  CostPerArea;                            ! Material Cost Units

