
OS:Version,
  {d1712e35-5ec9-412a-95a0-3291104b04f8}, ! Handle
  0.9.3;                                  ! Version Identifier

OS:Construction,
  {bf070e70-0edb-4e21-a1b0-0ea6ad7036aa}, ! Handle
  90.1-1999 Res B13 Window Fixed,         ! Name
  ,                                       ! Surface Rendering Name
  {057120f5-fc8e-411b-a7c7-40e7568b81f6}; ! Layer 1

OS:WindowMaterial:Glazing,
  {057120f5-fc8e-411b-a7c7-40e7568b81f6}, ! Handle
  Theoretical Glass [86],                 ! Name
  SpectralAverage,                        ! Optical Data Type
  ,                                       ! Window Glass Spectral Data Set Name
  0.003,                                  ! Thickness {m}
  0.341155,                               ! Solar Transmittance at Normal Incidence
  0.608845,                               ! Front Side Solar Reflectance at Normal Incidence
  0.608845,                               ! Back Side Solar Reflectance at Normal Incidence
  0.360158,                               ! Visible Transmittance at Normal Incidence
  0.589842,                               ! Front Side Visible Reflectance at Normal Incidence
  0.589842,                               ! Back Side Visible Reflectance at Normal Incidence
  0,                                      ! Infrared Transmittance at Normal Incidence
  0.9,                                    ! Front Side Infrared Hemispherical Emissivity
  0.9,                                    ! Back Side Infrared Hemispherical Emissivity
  0.013781;                               ! Conductivity {W/m-K}

OS:ComponentCost:LineItem,
  {bd4943b6-15b4-43f9-8709-0b7d8629bc7a}, ! Handle
  90.1-1999 Res B13 Window Fixed,         ! Name
  ,                                       ! Type
  Construction,                           ! Line Item Type
  90.1-1999 Res B13 Window Fixed,         ! Item Name
  ,                                       ! Object End Use Key
  ,                                       ! Quantity {dimensionless}
  554.2,                                  ! Material Cost {$}
  CostPerArea;                            ! Material Cost Units

