
OS:Version,
  {ee89cc17-2d7b-435b-9822-d798fec0c0ca}, ! Handle
  0.9.3;                                  ! Version Identifier

OS:ComponentCost:LineItem,
  {4798a4c4-e2fa-43c9-b57f-5e8ce6a661d9}, ! Handle
  90.1-2001 Res B25 Skylight without Curb, ! Name
  ,                                       ! Type
  Construction,                           ! Line Item Type
  90.1-2001 Res B25 Skylight without Curb, ! Item Name
  ,                                       ! Object End Use Key
  ,                                       ! Quantity {dimensionless}
  537.952,                                ! Material Cost {$}
  CostPerArea;                            ! Material Cost Units

OS:Construction,
  {835b8c6f-824e-4fa0-9ae4-d6921674a0f6}, ! Handle
  90.1-2001 Res B25 Skylight without Curb, ! Name
  ,                                       ! Surface Rendering Name
  {7904f560-cdd3-4e81-b885-338d4e0f3423}; ! Layer 1

OS:WindowMaterial:Glazing,
  {7904f560-cdd3-4e81-b885-338d4e0f3423}, ! Handle
  Theoretical Glass [117],                ! Name
  SpectralAverage,                        ! Optical Data Type
  ,                                       ! Window Glass Spectral Data Set Name
  0.003,                                  ! Thickness {m}
  0.470834,                               ! Solar Transmittance at Normal Incidence
  0.479166,                               ! Front Side Solar Reflectance at Normal Incidence
  0.479166,                               ! Back Side Solar Reflectance at Normal Incidence
  0.529698,                               ! Visible Transmittance at Normal Incidence
  0.420302,                               ! Front Side Visible Reflectance at Normal Incidence
  0.420302,                               ! Back Side Visible Reflectance at Normal Incidence
  0,                                      ! Infrared Transmittance at Normal Incidence
  0.9,                                    ! Front Side Infrared Hemispherical Emissivity
  0.9,                                    ! Back Side Infrared Hemispherical Emissivity
  0.0192257;                              ! Conductivity {W/m-K}

