
OS:Version,
  {2b1c3587-b2da-4364-93f2-3fafe28e2b19}, ! Handle
  0.9.3;                                  ! Version Identifier

OS:Construction,
  {2e737ac1-c351-4d15-bb9a-d170e5aa4466}, ! Handle
  90.1-2001 Res B26 Ext Slab Unheated - 8in Slab without Carpet, ! Name
  ,                                       ! Surface Rendering Name
  {13884f81-139f-4ebf-9f87-4a269a72dc4c}; ! Layer 1

OS:Material,
  {13884f81-139f-4ebf-9f87-4a269a72dc4c}, ! Handle
  MAT-CC05 8 HW CONCRETE,                 ! Name
  Rough,                                  ! Roughness
  0.20321,                                ! Thickness {m}
  1.311,                                  ! Conductivity {W/m-K}
  2240,                                   ! Density {kg/m3}
  836.8,                                  ! Specific Heat {J/kg-K}
  0.9,                                    ! Thermal Absorptance
  0.7,                                    ! Solar Absorptance
  0.7;                                    ! Visible Absorptance

OS:ComponentCost:LineItem,
  {958ae177-968c-4e1f-aa95-951ace4350a3}, ! Handle
  90.1-2001 Res B26 Ext Slab Unheated - 8in Slab without Carpet, ! Name
  ,                                       ! Type
  Construction,                           ! Line Item Type
  90.1-2001 Res B26 Ext Slab Unheated - 8in Slab without Carpet, ! Item Name
  ,                                       ! Object End Use Key
  ,                                       ! Quantity {dimensionless}
  45.52,                                  ! Material Cost {$}
  CostPerArea;                            ! Material Cost Units

