
OS:Version,
  {e2e81175-6f1f-46d1-a2f1-9abf42b09f91}, ! Handle
  0.9.3;                                  ! Version Identifier

OS:Material:NoMass,
  {3a45940a-992c-4d7d-90a9-0769bf84df01}, ! Handle
  CP02 CARPET PAD,                        ! Name
  VeryRough,                              ! Roughness
  0.21648,                                ! Thermal Resistance {m2-K/W}
  0.9,                                    ! Thermal Absorptance
  0.7,                                    ! Solar Absorptance
  0.8;                                    ! Visible Absorptance

OS:ComponentCost:LineItem,
  {e3a11064-8a0b-4fa7-a44f-acdb05b50e24}, ! Handle
  90.1-2004 Res 6B Ext Slab Unheated - 4in Slab with Carpet, ! Name
  ,                                       ! Type
  Construction,                           ! Line Item Type
  90.1-2004 Res 6B Ext Slab Unheated - 4in Slab with Carpet, ! Item Name
  ,                                       ! Object End Use Key
  ,                                       ! Quantity {dimensionless}
  45.52,                                  ! Material Cost {$}
  CostPerArea;                            ! Material Cost Units

OS:Construction,
  {b5b1b9f0-8ede-4665-83ac-64695213b92d}, ! Handle
  90.1-2004 Res 6B Ext Slab Unheated - 4in Slab with Carpet, ! Name
  ,                                       ! Surface Rendering Name
  {4a5049ab-fae6-4ee8-8b7a-b3b2c354bd61}, ! Layer 1
  {3a45940a-992c-4d7d-90a9-0769bf84df01}; ! Layer 2

OS:Material,
  {4a5049ab-fae6-4ee8-8b7a-b3b2c354bd61}, ! Handle
  MAT-CC05 4 HW CONCRETE,                 ! Name
  Rough,                                  ! Roughness
  0.1016,                                 ! Thickness {m}
  1.311,                                  ! Conductivity {W/m-K}
  2240,                                   ! Density {kg/m3}
  836.8,                                  ! Specific Heat {J/kg-K}
  0.9,                                    ! Thermal Absorptance
  0.7,                                    ! Solar Absorptance
  0.7;                                    ! Visible Absorptance

