
OS:Version,
  {7008c343-cf54-4153-a00c-fa0e5417fc87}, ! Handle
  0.9.3;                                  ! Version Identifier

OS:Construction,
  {058cdb61-6398-4cfe-92ec-c8de99b5d58f}, ! Handle
  90.1-2001 Res B20 Skylight without Curb, ! Name
  ,                                       ! Surface Rendering Name
  {3ea157ba-a564-4afe-9b3e-766377b8574b}; ! Layer 1

OS:WindowMaterial:Glazing,
  {3ea157ba-a564-4afe-9b3e-766377b8574b}, ! Handle
  Theoretical Glass [95],                 ! Name
  SpectralAverage,                        ! Optical Data Type
  ,                                       ! Window Glass Spectral Data Set Name
  0.003,                                  ! Thickness {m}
  0.662387,                               ! Solar Transmittance at Normal Incidence
  0.287613,                               ! Front Side Solar Reflectance at Normal Incidence
  0.287613,                               ! Back Side Solar Reflectance at Normal Incidence
  0.754945,                               ! Visible Transmittance at Normal Incidence
  0.195055,                               ! Front Side Visible Reflectance at Normal Incidence
  0.195055,                               ! Back Side Visible Reflectance at Normal Incidence
  0,                                      ! Infrared Transmittance at Normal Incidence
  0.9,                                    ! Front Side Infrared Hemispherical Emissivity
  0.9,                                    ! Back Side Infrared Hemispherical Emissivity
  0.0324872;                              ! Conductivity {W/m-K}

OS:ComponentCost:LineItem,
  {7cde8b61-65ec-48d7-87e7-c2fa0796d18a}, ! Handle
  90.1-2001 Res B20 Skylight without Curb, ! Name
  ,                                       ! Type
  Construction,                           ! Line Item Type
  90.1-2001 Res B20 Skylight without Curb, ! Item Name
  ,                                       ! Object End Use Key
  ,                                       ! Quantity {dimensionless}
  502.229,                                ! Material Cost {$}
  CostPerArea;                            ! Material Cost Units

