
OS:Version,
  {98e43245-83f8-4f75-b07e-88e8676b0414}, ! Handle
  0.9.3;                                  ! Version Identifier

OS:Material,
  {f068d047-27aa-4c29-95f9-1a2717228153}, ! Handle
  Roof Insulation [1],                    ! Name
  MediumRough,                            ! Roughness
  0.123533,                               ! Thickness {m}
  0.049,                                  ! Conductivity {W/m-K}
  265,                                    ! Density {kg/m3}
  836.8,                                  ! Specific Heat {J/kg-K}
  0.9,                                    ! Thermal Absorptance
  0.7,                                    ! Solar Absorptance
  0.7;                                    ! Visible Absorptance

OS:Material,
  {61a25016-a714-4cbb-b9c7-b867a4d6b9d6}, ! Handle
  Metal Roofing,                          ! Name
  MediumSmooth,                           ! Roughness
  0.001524,                               ! Thickness {m}
  45.006,                                 ! Conductivity {W/m-K}
  7680,                                   ! Density {kg/m3}
  418.4,                                  ! Specific Heat {J/kg-K}
  0.9,                                    ! Thermal Absorptance
  0.7,                                    ! Solar Absorptance
  0.3;                                    ! Visible Absorptance

OS:Construction,
  {2ed180a0-6354-4666-abc9-e9d1742f9500}, ! Handle
  90.1-1999 Res B9 Roof Metal Building,   ! Name
  ,                                       ! Surface Rendering Name
  {61a25016-a714-4cbb-b9c7-b867a4d6b9d6}, ! Layer 1
  {f068d047-27aa-4c29-95f9-1a2717228153}; ! Layer 2

OS:ComponentCost:LineItem,
  {9c8c8035-ae05-42fb-aa7e-3e6354d3ce33}, ! Handle
  90.1-1999 Res B9 Roof Metal Building,   ! Name
  ,                                       ! Type
  Construction,                           ! Line Item Type
  90.1-1999 Res B9 Roof Metal Building,   ! Item Name
  ,                                       ! Object End Use Key
  ,                                       ! Quantity {dimensionless}
  38.206,                                 ! Material Cost {$}
  CostPerArea;                            ! Material Cost Units

