
OS:Version,
  {a1003845-8bbf-4a86-9345-8c8fea1120c1}, ! Handle
  0.9.3;                                  ! Version Identifier

OS:Construction,
  {2351b6e2-d7e0-4c52-a02f-2d4f156c5753}, ! Handle
  90.1-1999 Res B9 Roof Metal Building,   ! Name
  ,                                       ! Surface Rendering Name
  {e970d3e4-4eb7-4a6b-b814-d94ebcf8286f}, ! Layer 1
  {e09c794e-2975-4b99-8bea-530a41814fec}; ! Layer 2

OS:Material,
  {e970d3e4-4eb7-4a6b-b814-d94ebcf8286f}, ! Handle
  Metal Roofing,                          ! Name
  MediumSmooth,                           ! Roughness
  0.001524,                               ! Thickness {m}
  45.006,                                 ! Conductivity {W/m-K}
  7680,                                   ! Density {kg/m3}
  418.4,                                  ! Specific Heat {J/kg-K}
  0.9,                                    ! Thermal Absorptance
  0.7,                                    ! Solar Absorptance
  0.3;                                    ! Visible Absorptance

OS:Material,
  {e09c794e-2975-4b99-8bea-530a41814fec}, ! Handle
  Roof Insulation [1],                    ! Name
  MediumRough,                            ! Roughness
  0.123533,                               ! Thickness {m}
  0.049,                                  ! Conductivity {W/m-K}
  265,                                    ! Density {kg/m3}
  836.8,                                  ! Specific Heat {J/kg-K}
  0.9,                                    ! Thermal Absorptance
  0.7,                                    ! Solar Absorptance
  0.7;                                    ! Visible Absorptance

OS:ComponentCost:LineItem,
  {c84da5b9-4e9a-4d91-b81b-9460b18f7b28}, ! Handle
  90.1-1999 Res B9 Roof Metal Building,   ! Name
  ,                                       ! Type
  Construction,                           ! Line Item Type
  90.1-1999 Res B9 Roof Metal Building,   ! Item Name
  ,                                       ! Object End Use Key
  ,                                       ! Quantity {dimensionless}
  38.206,                                 ! Material Cost {$}
  CostPerArea;                            ! Material Cost Units

OS:ComponentData,
  {fcce63d5-80fc-48e0-ad6b-dcd4a078dd38}, ! Handle
  Component Data 1,                       ! Name
  {d907163a-e6ba-4962-a570-b7b98a161fbb}, ! UUID
  {f8cfd880-4b54-47fd-9950-f7214cf81ded}, ! Version UUID
  1363981200,                             ! Creation Timestamp
  1363981200,                             ! Version Timestamp
  {2351b6e2-d7e0-4c52-a02f-2d4f156c5753}, ! Name of Object 1
  {e970d3e4-4eb7-4a6b-b814-d94ebcf8286f}, ! Name of Object 2
  {e09c794e-2975-4b99-8bea-530a41814fec}, ! Name of Object 3
  {c84da5b9-4e9a-4d91-b81b-9460b18f7b28}; ! Name of Object 4

