
OS:Version,
  {96ce59c5-cce1-455f-a02e-7a8e2fcbafb6}, ! Handle
  0.9.3;                                  ! Version Identifier

OS:Construction,
  {3870eb9a-3033-4f17-a132-592d650e1ae7}, ! Handle
  90.1-2001 Nonres B2 Ext Slab Unheated - 8in Slab without Carpet, ! Name
  ,                                       ! Surface Rendering Name
  {cd748bba-bff9-4ba1-9a1d-df2a83ae1d94}; ! Layer 1

OS:Material,
  {cd748bba-bff9-4ba1-9a1d-df2a83ae1d94}, ! Handle
  MAT-CC05 8 HW CONCRETE,                 ! Name
  Rough,                                  ! Roughness
  0.20321,                                ! Thickness {m}
  1.311,                                  ! Conductivity {W/m-K}
  2240,                                   ! Density {kg/m3}
  836.8,                                  ! Specific Heat {J/kg-K}
  0.9,                                    ! Thermal Absorptance
  0.7,                                    ! Solar Absorptance
  0.7;                                    ! Visible Absorptance

OS:ComponentCost:LineItem,
  {874e6c1f-0f3e-43ac-8338-d78449e5543b}, ! Handle
  90.1-2001 Nonres B2 Ext Slab Unheated - 8in Slab without Carpet, ! Name
  ,                                       ! Type
  Construction,                           ! Line Item Type
  90.1-2001 Nonres B2 Ext Slab Unheated - 8in Slab without Carpet, ! Item Name
  ,                                       ! Object End Use Key
  ,                                       ! Quantity {dimensionless}
  45.52,                                  ! Material Cost {$}
  CostPerArea;                            ! Material Cost Units

OS:ComponentData,
  {67bbbf45-de88-41f8-9378-bffa3e34327b}, ! Handle
  Component Data 1,                       ! Name
  {f638daf7-5c72-4c81-bac1-be1a418c6fbb}, ! UUID
  {f91dda06-577a-4609-b0e2-e087191e88c5}, ! Version UUID
  1363981296,                             ! Creation Timestamp
  1363981296,                             ! Version Timestamp
  {3870eb9a-3033-4f17-a132-592d650e1ae7}, ! Name of Object 1
  {cd748bba-bff9-4ba1-9a1d-df2a83ae1d94}, ! Name of Object 2
  {874e6c1f-0f3e-43ac-8338-d78449e5543b}; ! Name of Object 3

