
OS:Version,
  {9cc998e4-27dc-48c9-9f38-062ed6583f54}, ! Handle
  0.9.3;                                  ! Version Identifier

OS:Construction,
  {91f269f0-7103-4dfe-8972-2bd5e6add72c}, ! Handle
  90.1-1999 Nonres B15 Ext Wall Steel-Framed, ! Name
  ,                                       ! Surface Rendering Name
  {bd463193-2bbc-4432-a1a3-2a2c6371187d}, ! Layer 1
  {ae655413-fb35-4646-b1d0-7d3e23c286d8}, ! Layer 2
  {168403e1-141b-4b95-b4bf-6371cb010e26}; ! Layer 3

OS:Material:NoMass,
  {bd463193-2bbc-4432-a1a3-2a2c6371187d}, ! Handle
  MAT-SHEATH,                             ! Name
  Rough,                                  ! Roughness
  0.36256,                                ! Thermal Resistance {m2-K/W}
  0.9,                                    ! Thermal Absorptance
  0.7,                                    ! Solar Absorptance
  0.7;                                    ! Visible Absorptance

OS:Material,
  {ae655413-fb35-4646-b1d0-7d3e23c286d8}, ! Handle
  Wall Insulation [1],                    ! Name
  MediumRough,                            ! Roughness
  0.0373223,                              ! Thickness {m}
  0.045,                                  ! Conductivity {W/m-K}
  265,                                    ! Density {kg/m3}
  836.8,                                  ! Specific Heat {J/kg-K}
  0.9,                                    ! Thermal Absorptance
  0.7,                                    ! Solar Absorptance
  0.7;                                    ! Visible Absorptance

OS:Material,
  {168403e1-141b-4b95-b4bf-6371cb010e26}, ! Handle
  1/2IN Gypsum,                           ! Name
  Smooth,                                 ! Roughness
  0.01271,                                ! Thickness {m}
  0.16,                                   ! Conductivity {W/m-K}
  784.9,                                  ! Density {kg/m3}
  830,                                    ! Specific Heat {J/kg-K}
  0.9,                                    ! Thermal Absorptance
  0.92,                                   ! Solar Absorptance
  0.92;                                   ! Visible Absorptance

OS:ComponentCost:LineItem,
  {e2babaac-a176-430b-a666-35f642af530c}, ! Handle
  90.1-1999 Nonres B15 Ext Wall Steel-Framed, ! Name
  ,                                       ! Type
  Construction,                           ! Line Item Type
  90.1-1999 Nonres B15 Ext Wall Steel-Framed, ! Item Name
  ,                                       ! Object End Use Key
  ,                                       ! Quantity {dimensionless}
  87.08,                                  ! Material Cost {$}
  CostPerArea;                            ! Material Cost Units

