
OS:Version,
  {39837714-bf36-4273-bbec-5685013c4887}, ! Handle
  0.9.3;                                  ! Version Identifier

OS:Construction,
  {9528a3c4-b7e2-4c77-8241-8010ee91ed98}, ! Handle
  Title 24-2008 Nonres 11 Door Swinging,  ! Name
  ,                                       ! Surface Rendering Name
  {39fd5ded-bd5d-44e3-a8cc-a75da9ead507}, ! Layer 1
  {a7e99d97-dbc8-48b9-a828-94d958194140}, ! Layer 2
  {e1198d96-864a-47ba-b684-9d3a74847b27}; ! Layer 3

OS:Material,
  {39fd5ded-bd5d-44e3-a8cc-a75da9ead507}, ! Handle
  METAL Door Medium 18Ga_1,               ! Name
  Smooth,                                 ! Roughness
  0.0013106,                              ! Thickness {m}
  45.3149,                                ! Conductivity {W/m-K}
  7833.03,                                ! Density {kg/m3}
  502.08,                                 ! Specific Heat {J/kg-K}
  0.8,                                    ! Thermal Absorptance
  0.5,                                    ! Solar Absorptance
  0.5;                                    ! Visible Absorptance

OS:Material:NoMass,
  {a7e99d97-dbc8-48b9-a828-94d958194140}, ! Handle
  AIR [15],                               ! Name
  Smooth,                                 ! Roughness
  0.251781,                               ! Thermal Resistance {m2-K/W}
  0.8,                                    ! Thermal Absorptance
  0.5,                                    ! Solar Absorptance
  0.5;                                    ! Visible Absorptance

OS:Material,
  {e1198d96-864a-47ba-b684-9d3a74847b27}, ! Handle
  METAL Door Medium 18Ga_2,               ! Name
  Smooth,                                 ! Roughness
  0.0013106,                              ! Thickness {m}
  45.3149,                                ! Conductivity {W/m-K}
  7833.03,                                ! Density {kg/m3}
  502.08,                                 ! Specific Heat {J/kg-K}
  0.8,                                    ! Thermal Absorptance
  0.5,                                    ! Solar Absorptance
  0.5;                                    ! Visible Absorptance

OS:ComponentCost:LineItem,
  {0dfbf49a-615f-4ebd-9209-512c6bcb2512}, ! Handle
  Title 24-2008 Nonres 11 Door Swinging,  ! Name
  ,                                       ! Type
  Construction,                           ! Line Item Type
  Title 24-2008 Nonres 11 Door Swinging,  ! Item Name
  ,                                       ! Object End Use Key
  ,                                       ! Quantity {dimensionless}
  0,                                      ! Material Cost {$}
  CostPerArea;                            ! Material Cost Units

