
OS:Version,
  {972c6fb8-b3b8-42f9-a692-4a1d6bd6e465}, ! Handle
  0.9.3;                                  ! Version Identifier

OS:Construction,
  {87fe33ee-781e-4b66-b2ab-f3782f17c164}, ! Handle
  Title 24-2008 Nonres 11 Door Swinging,  ! Name
  ,                                       ! Surface Rendering Name
  {853b8c3a-87e8-448c-92d3-7a00c7f3e128}, ! Layer 1
  {ddae2abd-15e9-45f4-a8a3-f020835e24fa}, ! Layer 2
  {0f22c5bc-4fbf-45ff-8231-c2782608703f}; ! Layer 3

OS:Material,
  {853b8c3a-87e8-448c-92d3-7a00c7f3e128}, ! Handle
  METAL Door Medium 18Ga_1,               ! Name
  Smooth,                                 ! Roughness
  0.0013106,                              ! Thickness {m}
  45.3149,                                ! Conductivity {W/m-K}
  7833.03,                                ! Density {kg/m3}
  502.08,                                 ! Specific Heat {J/kg-K}
  0.8,                                    ! Thermal Absorptance
  0.5,                                    ! Solar Absorptance
  0.5;                                    ! Visible Absorptance

OS:Material:NoMass,
  {ddae2abd-15e9-45f4-a8a3-f020835e24fa}, ! Handle
  AIR [15],                               ! Name
  Smooth,                                 ! Roughness
  0.251781,                               ! Thermal Resistance {m2-K/W}
  0.8,                                    ! Thermal Absorptance
  0.5,                                    ! Solar Absorptance
  0.5;                                    ! Visible Absorptance

OS:Material,
  {0f22c5bc-4fbf-45ff-8231-c2782608703f}, ! Handle
  METAL Door Medium 18Ga_2,               ! Name
  Smooth,                                 ! Roughness
  0.0013106,                              ! Thickness {m}
  45.3149,                                ! Conductivity {W/m-K}
  7833.03,                                ! Density {kg/m3}
  502.08,                                 ! Specific Heat {J/kg-K}
  0.8,                                    ! Thermal Absorptance
  0.5,                                    ! Solar Absorptance
  0.5;                                    ! Visible Absorptance

OS:ComponentCost:LineItem,
  {039369cc-447e-4689-84ab-9d83e1ff1aeb}, ! Handle
  Title 24-2008 Nonres 11 Door Swinging,  ! Name
  ,                                       ! Type
  Construction,                           ! Line Item Type
  Title 24-2008 Nonres 11 Door Swinging,  ! Item Name
  ,                                       ! Object End Use Key
  ,                                       ! Quantity {dimensionless}
  0,                                      ! Material Cost {$}
  CostPerArea;                            ! Material Cost Units

OS:ComponentData,
  {cbf5675f-64b3-4715-8741-906261220119}, ! Handle
  Component Data 1,                       ! Name
  {19c95c9d-868d-4f32-82a3-caf98d006de1}, ! UUID
  {82a69a91-3cf4-4f0a-a475-dc7cda422a57}, ! Version UUID
  1363982073,                             ! Creation Timestamp
  1363982073,                             ! Version Timestamp
  {87fe33ee-781e-4b66-b2ab-f3782f17c164}, ! Name of Object 1
  {853b8c3a-87e8-448c-92d3-7a00c7f3e128}, ! Name of Object 2
  {ddae2abd-15e9-45f4-a8a3-f020835e24fa}, ! Name of Object 3
  {0f22c5bc-4fbf-45ff-8231-c2782608703f}, ! Name of Object 4
  {039369cc-447e-4689-84ab-9d83e1ff1aeb}; ! Name of Object 5

