
OS:Version,
  {8796e22c-e087-4619-8ea2-3057e5b73a94}, ! Handle
  0.9.3;                                  ! Version Identifier

OS:Construction,
  {9300b5cc-34f5-4971-a2cf-63440a001fa2}, ! Handle
  AEDG-SmOffice 1A Window Fixed,          ! Name
  ,                                       ! Surface Rendering Name
  {7b152318-7430-43e6-90d0-0ba04407b2eb}; ! Layer 1

OS:WindowMaterial:Glazing,
  {7b152318-7430-43e6-90d0-0ba04407b2eb}, ! Handle
  Theoretical Glass [229],                ! Name
  SpectralAverage,                        ! Optical Data Type
  ,                                       ! Window Glass Spectral Data Set Name
  0.003,                                  ! Thickness {m}
  0.482641,                               ! Solar Transmittance at Normal Incidence
  0.467359,                               ! Front Side Solar Reflectance at Normal Incidence
  0.467359,                               ! Back Side Solar Reflectance at Normal Incidence
  0.529698,                               ! Visible Transmittance at Normal Incidence
  0.420302,                               ! Front Side Visible Reflectance at Normal Incidence
  0.420302,                               ! Back Side Visible Reflectance at Normal Incidence
  0,                                      ! Infrared Transmittance at Normal Incidence
  0.9,                                    ! Front Side Infrared Hemispherical Emissivity
  0.9,                                    ! Back Side Infrared Hemispherical Emissivity
  0.0191951;                              ! Conductivity {W/m-K}

OS:ComponentCost:LineItem,
  {2b46c4f1-dcdb-4900-b48d-389da85d3ba3}, ! Handle
  AEDG-SmOffice 1A Window Fixed,          ! Name
  ,                                       ! Type
  Construction,                           ! Line Item Type
  AEDG-SmOffice 1A Window Fixed,          ! Item Name
  ,                                       ! Object End Use Key
  ,                                       ! Quantity {dimensionless}
  444.555,                                ! Material Cost {$}
  CostPerArea;                            ! Material Cost Units

