
OS:Version,
  {6c49a47e-0058-433f-8c46-0ff5bcd9977e}, !- Handle
  1.0.6;                                  !- Version Identifier

OS:WindowMaterial:Glazing,
  {3eadec09-3380-40f1-9da0-9911f7ba8f9a}, !- Handle
  189.1-2011 NONRES 3A METAL FRAMING CURTAINWALL-STOREFRONT THEORETICAL GLAZING, !- Name
  SpectralAverage,                        !- Optical Data Type
  ,                                       !- Window Glass Spectral Data Set Name
  0.01978,                                !- Thickness {m}
  0.16139,                                !- Solar Transmittance at Normal Incidence
  0.61112,                                !- Front Side Solar Reflectance at Normal Incidence
  0.61112,                                !- Back Side Solar Reflectance at Normal Incidence
  0.16139,                                !- Visible Transmittance at Normal Incidence
  0.61112,                                !- Front Side Visible Reflectance at Normal Incidence
  0.61112,                                !- Back Side Visible Reflectance at Normal Incidence
  0,                                      !- Infrared Transmittance at Normal Incidence
  0.84,                                   !- Front Side Infrared Hemispherical Emissivity
  0.84,                                   !- Back Side Infrared Hemispherical Emissivity
  0.10903,                                !- Conductivity {W/m-K}
  1,                                      !- Dirt Correction Factor for Solar and Visible Transmittance
  No;                                     !- Solar Diffusing

OS:Construction,
  {6bcd64db-95aa-46ef-b524-dadcbebb1554}, !- Handle
  189.1-2011 NONRES 3A METAL FRAMING CURTAINWALL-STOREFRONT, !- Name
  ,                                       !- Surface Rendering Name
  {3eadec09-3380-40f1-9da0-9911f7ba8f9a}; !- Layer 1

