
OS:Version,
  {2e8ed41d-5ee3-49bb-984e-a10fc62d5276}, !- Handle
  1.0.6;                                  !- Version Identifier

OS:Construction,
  {d2d68b5d-ea0e-423c-bf31-253c7f9de9b9}, !- Handle
  189.1-2011 NONRES 3A METAL FRAMING CURTAINWALL-STOREFRONT, !- Name
  ,                                       !- Surface Rendering Name
  {d6bd19b1-03a0-4b30-bbc8-ce706bd85f07}; !- Layer 1

OS:WindowMaterial:Glazing,
  {d6bd19b1-03a0-4b30-bbc8-ce706bd85f07}, !- Handle
  189.1-2011 NONRES 3A METAL FRAMING CURTAINWALL-STOREFRONT THEORETICAL GLAZING, !- Name
  SpectralAverage,                        !- Optical Data Type
  ,                                       !- Window Glass Spectral Data Set Name
  0.01978,                                !- Thickness {m}
  0.16139,                                !- Solar Transmittance at Normal Incidence
  0.61112,                                !- Front Side Solar Reflectance at Normal Incidence
  0.61112,                                !- Back Side Solar Reflectance at Normal Incidence
  0.16139,                                !- Visible Transmittance at Normal Incidence
  0.61112,                                !- Front Side Visible Reflectance at Normal Incidence
  0.61112,                                !- Back Side Visible Reflectance at Normal Incidence
  0,                                      !- Infrared Transmittance at Normal Incidence
  0.84,                                   !- Front Side Infrared Hemispherical Emissivity
  0.84,                                   !- Back Side Infrared Hemispherical Emissivity
  0.10903,                                !- Conductivity {W/m-K}
  1,                                      !- Dirt Correction Factor for Solar and Visible Transmittance
  No;                                     !- Solar Diffusing

OS:ComponentData,
  {70c6c592-6f34-464c-9da3-81c40f178321}, !- Handle
  Component Data 1,                       !- Name
  {f3191a45-245e-4e0b-9553-6407161de9d7}, !- UUID
  {32f9fa44-27fe-4426-9907-6617970e7b7d}, !- Version UUID
  1380911254,                             !- Creation Timestamp
  1380911254,                             !- Version Timestamp
  {d2d68b5d-ea0e-423c-bf31-253c7f9de9b9}, !- Name of Object 1
  {d6bd19b1-03a0-4b30-bbc8-ce706bd85f07}; !- Name of Object 2

