
OS:Version,
  {26a346fd-b004-411b-a446-39e0a2ef136c}, ! Handle
  0.9.3;                                  ! Version Identifier

OS:ComponentCost:LineItem,
  {0d128fea-ffa6-4d9a-8c01-6aa1e913981f}, ! Handle
  189.1-2009 Res 8A Window Nonmetal framing, ! Name
  ,                                       ! Type
  Construction,                           ! Line Item Type
  189.1-2009 Res 8A Window Nonmetal framing, ! Item Name
  ,                                       ! Object End Use Key
  ,                                       ! Quantity {dimensionless}
  508.362,                                ! Material Cost {$}
  CostPerArea;                            ! Material Cost Units

OS:Construction,
  {8a42a797-563b-4f28-a8ae-f8ec35f7a558}, ! Handle
  189.1-2009 Res 8A Window Nonmetal framing, ! Name
  ,                                       ! Surface Rendering Name
  {7263eb24-77b3-477d-80c6-ad2cf386ae96}; ! Layer 1

OS:WindowMaterial:Glazing,
  {7263eb24-77b3-477d-80c6-ad2cf386ae96}, ! Handle
  Theoretical Glass [218],                ! Name
  SpectralAverage,                        ! Optical Data Type
  ,                                       ! Window Glass Spectral Data Set Name
  0.003,                                  ! Thickness {m}
  0.428104,                               ! Solar Transmittance at Normal Incidence
  0.521896,                               ! Front Side Solar Reflectance at Normal Incidence
  0.521896,                               ! Back Side Solar Reflectance at Normal Incidence
  0.450308,                               ! Visible Transmittance at Normal Incidence
  0.499692,                               ! Front Side Visible Reflectance at Normal Incidence
  0.499692,                               ! Back Side Visible Reflectance at Normal Incidence
  0,                                      ! Infrared Transmittance at Normal Incidence
  0.9,                                    ! Front Side Infrared Hemispherical Emissivity
  0.9,                                    ! Back Side Infrared Hemispherical Emissivity
  0.00560984;                             ! Conductivity {W/m-K}

