
OS:Version,
  {d9ab517d-7f3c-496c-89a8-4ec860433aad}, ! Handle
  0.9.3;                                  ! Version Identifier

OS:Material,
  {0950bd58-02a0-494f-9bbb-e9814bcea9f2}, ! Handle
  Metal Roofing,                          ! Name
  MediumSmooth,                           ! Roughness
  0.001524,                               ! Thickness {m}
  45.006,                                 ! Conductivity {W/m-K}
  7680,                                   ! Density {kg/m3}
  418.4,                                  ! Specific Heat {J/kg-K}
  0.9,                                    ! Thermal Absorptance
  0.7,                                    ! Solar Absorptance
  0.3;                                    ! Visible Absorptance

OS:ComponentCost:LineItem,
  {eb721848-cd44-4ef2-b189-a10292531f55}, ! Handle
  90.1-1999 Nonres B16 Roof Metal Building, ! Name
  ,                                       ! Type
  Construction,                           ! Line Item Type
  90.1-1999 Nonres B16 Roof Metal Building, ! Item Name
  ,                                       ! Object End Use Key
  ,                                       ! Quantity {dimensionless}
  38.206,                                 ! Material Cost {$}
  CostPerArea;                            ! Material Cost Units

OS:Construction,
  {b8666e23-9c43-421d-85b1-86c145e0fffe}, ! Handle
  90.1-1999 Nonres B16 Roof Metal Building, ! Name
  ,                                       ! Surface Rendering Name
  {0950bd58-02a0-494f-9bbb-e9814bcea9f2}, ! Layer 1
  {b412c010-d804-49bb-b9ac-4d6e0082213e}; ! Layer 2

OS:Material,
  {b412c010-d804-49bb-b9ac-4d6e0082213e}, ! Handle
  Roof Insulation [1],                    ! Name
  MediumRough,                            ! Roughness
  0.123533,                               ! Thickness {m}
  0.049,                                  ! Conductivity {W/m-K}
  265,                                    ! Density {kg/m3}
  836.8,                                  ! Specific Heat {J/kg-K}
  0.9,                                    ! Thermal Absorptance
  0.7,                                    ! Solar Absorptance
  0.7;                                    ! Visible Absorptance

