
OS:Version,
  {3141aa52-3557-4386-b4b5-e1ce922306d0}, ! Handle
  0.9.3;                                  ! Version Identifier

OS:Construction,
  {a5bf8495-6a70-4cc8-a74b-2d5d7c47f33e}, ! Handle
  90.1-2004 Nonres 6B Window Fixed,       ! Name
  ,                                       ! Surface Rendering Name
  {8926e061-e42d-43db-99f8-1113c3ea2aa5}; ! Layer 1

OS:WindowMaterial:Glazing,
  {8926e061-e42d-43db-99f8-1113c3ea2aa5}, ! Handle
  Theoretical Glass [148],                ! Name
  SpectralAverage,                        ! Optical Data Type
  ,                                       ! Window Glass Spectral Data Set Name
  0.003,                                  ! Thickness {m}
  0.48413,                                ! Solar Transmittance at Normal Incidence
  0.46587,                                ! Front Side Solar Reflectance at Normal Incidence
  0.46587,                                ! Back Side Solar Reflectance at Normal Incidence
  0.621562,                               ! Visible Transmittance at Normal Incidence
  0.328438,                               ! Front Side Visible Reflectance at Normal Incidence
  0.328438,                               ! Back Side Visible Reflectance at Normal Incidence
  0,                                      ! Infrared Transmittance at Normal Incidence
  0.9,                                    ! Front Side Infrared Hemispherical Emissivity
  0.9,                                    ! Back Side Infrared Hemispherical Emissivity
  0.0134755;                              ! Conductivity {W/m-K}

OS:ComponentCost:LineItem,
  {74e01cea-0f85-4ad8-8fef-b38655497af1}, ! Handle
  90.1-2004 Nonres 6B Window Fixed,       ! Name
  ,                                       ! Type
  Construction,                           ! Line Item Type
  90.1-2004 Nonres 6B Window Fixed,       ! Item Name
  ,                                       ! Object End Use Key
  ,                                       ! Quantity {dimensionless}
  444.232,                                ! Material Cost {$}
  CostPerArea;                            ! Material Cost Units

