
OS:Version,
  {89d9d224-bd6b-44a4-8b98-06db9a628fbe}, ! Handle
  0.9.3;                                  ! Version Identifier

OS:Material:NoMass,
  {08772c0d-cf7d-408a-ae79-787d52b127e3}, ! Handle
  CP02 CARPET PAD,                        ! Name
  VeryRough,                              ! Roughness
  0.21648,                                ! Thermal Resistance {m2-K/W}
  0.9,                                    ! Thermal Absorptance
  0.7,                                    ! Solar Absorptance
  0.8;                                    ! Visible Absorptance

OS:Material,
  {6fde1628-dce9-4a30-b5ff-348354cd76fb}, ! Handle
  MAT-CC05 4 HW CONCRETE,                 ! Name
  Rough,                                  ! Roughness
  0.1016,                                 ! Thickness {m}
  1.311,                                  ! Conductivity {W/m-K}
  2240,                                   ! Density {kg/m3}
  836.8,                                  ! Specific Heat {J/kg-K}
  0.9,                                    ! Thermal Absorptance
  0.7,                                    ! Solar Absorptance
  0.7;                                    ! Visible Absorptance

OS:Construction,
  {e774081b-7435-418e-939a-b4608af7e045}, ! Handle
  90.1-2001 Nonres B23 Ext Slab Unheated - 4in Slab with Carpet, ! Name
  ,                                       ! Surface Rendering Name
  {6fde1628-dce9-4a30-b5ff-348354cd76fb}, ! Layer 1
  {08772c0d-cf7d-408a-ae79-787d52b127e3}; ! Layer 2

OS:ComponentCost:LineItem,
  {7eb88d11-2bc6-427c-a2dd-5be4914f1a24}, ! Handle
  90.1-2001 Nonres B23 Ext Slab Unheated - 4in Slab with Carpet, ! Name
  ,                                       ! Type
  Construction,                           ! Line Item Type
  90.1-2001 Nonres B23 Ext Slab Unheated - 4in Slab with Carpet, ! Item Name
  ,                                       ! Object End Use Key
  ,                                       ! Quantity {dimensionless}
  45.52,                                  ! Material Cost {$}
  CostPerArea;                            ! Material Cost Units

