
OS:Version,
  {36de3289-c337-458a-9dec-6568a529f4a9}, ! Handle
  0.9.3;                                  ! Version Identifier

OS:Material,
  {ec66d3c1-6c72-4953-9f08-fcebc5878934}, ! Handle
  1IN Wood Decking,                       ! Name
  MediumSmooth,                           ! Roughness
  0.0254,                                 ! Thickness {m}
  0.1211,                                 ! Conductivity {W/m-K}
  593,                                    ! Density {kg/m3}
  2510,                                   ! Specific Heat {J/kg-K}
  0.9,                                    ! Thermal Absorptance
  0.78,                                   ! Solar Absorptance
  0.78;                                   ! Visible Absorptance

OS:Construction,
  {21bf7f53-aaa3-4166-87ec-35015788b028}, ! Handle
  90.1-2004 Nonres 6B Roof Attic and Other, ! Name
  ,                                       ! Surface Rendering Name
  {622cc2b5-e93b-4cc2-805c-6dff9decc300}, ! Layer 1
  {ec66d3c1-6c72-4953-9f08-fcebc5878934}, ! Layer 2
  {6a6ad249-fc1a-41b1-87fc-a63669548a93}, ! Layer 3
  {fb012949-fba1-4a52-a719-a9fb6bd13836}; ! Layer 4

OS:Material,
  {622cc2b5-e93b-4cc2-805c-6dff9decc300}, ! Handle
  Wood Shingles,                          ! Name
  VeryRough,                              ! Roughness
  0.0178,                                 ! Thickness {m}
  0.115,                                  ! Conductivity {W/m-K}
  513,                                    ! Density {kg/m3}
  1255,                                   ! Specific Heat {J/kg-K}
  0.9,                                    ! Thermal Absorptance
  0.78,                                   ! Solar Absorptance
  0.78;                                   ! Visible Absorptance

OS:Material,
  {6a6ad249-fc1a-41b1-87fc-a63669548a93}, ! Handle
  Roof Insulation [5],                    ! Name
  MediumRough,                            ! Roughness
  0.286906,                               ! Thickness {m}
  0.049,                                  ! Conductivity {W/m-K}
  265,                                    ! Density {kg/m3}
  836.8,                                  ! Specific Heat {J/kg-K}
  0.9,                                    ! Thermal Absorptance
  0.7,                                    ! Solar Absorptance
  0.7;                                    ! Visible Absorptance

OS:Material,
  {fb012949-fba1-4a52-a719-a9fb6bd13836}, ! Handle
  1/2IN Gypsum,                           ! Name
  Smooth,                                 ! Roughness
  0.01271,                                ! Thickness {m}
  0.16,                                   ! Conductivity {W/m-K}
  784.9,                                  ! Density {kg/m3}
  830,                                    ! Specific Heat {J/kg-K}
  0.9,                                    ! Thermal Absorptance
  0.92,                                   ! Solar Absorptance
  0.92;                                   ! Visible Absorptance

OS:ComponentCost:LineItem,
  {8d0b4a2b-00ed-461b-acc2-6501253bcb8f}, ! Handle
  90.1-2004 Nonres 6B Roof Attic and Other, ! Name
  ,                                       ! Type
  Construction,                           ! Line Item Type
  90.1-2004 Nonres 6B Roof Attic and Other, ! Item Name
  ,                                       ! Object End Use Key
  ,                                       ! Quantity {dimensionless}
  34.757,                                 ! Material Cost {$}
  CostPerArea;                            ! Material Cost Units

