
OS:Version,
  {9551d5c1-399f-4961-b689-e35eed2e2f84}, ! Handle
  0.9.3;                                  ! Version Identifier

OS:Construction,
  {1c7c1ea6-7528-4531-b318-1aa5531398e2}, ! Handle
  90.1-2004 Nonres 3C Ext Wall Metal Building, ! Name
  ,                                       ! Surface Rendering Name
  {eb3e87d4-c8d6-43e8-bdb1-a9ec60ee0508}, ! Layer 1
  {639de793-7c00-41a9-8583-6d1fb87dedc6}, ! Layer 2
  {5a6eb8d2-ddf5-4fc0-b02f-adede3d47736}; ! Layer 3

OS:Material,
  {eb3e87d4-c8d6-43e8-bdb1-a9ec60ee0508}, ! Handle
  Metal Siding,                           ! Name
  Smooth,                                 ! Roughness
  0.0015,                                 ! Thickness {m}
  44.96,                                  ! Conductivity {W/m-K}
  7688.86,                                ! Density {kg/m3}
  410,                                    ! Specific Heat {J/kg-K}
  0.9,                                    ! Thermal Absorptance
  0.2,                                    ! Solar Absorptance
  0.2;                                    ! Visible Absorptance

OS:Material,
  {639de793-7c00-41a9-8583-6d1fb87dedc6}, ! Handle
  Wall Insulation,                        ! Name
  MediumRough,                            ! Roughness
  0.0598725,                              ! Thickness {m}
  0.045,                                  ! Conductivity {W/m-K}
  265,                                    ! Density {kg/m3}
  836.8,                                  ! Specific Heat {J/kg-K}
  0.9,                                    ! Thermal Absorptance
  0.7,                                    ! Solar Absorptance
  0.7;                                    ! Visible Absorptance

OS:Material,
  {5a6eb8d2-ddf5-4fc0-b02f-adede3d47736}, ! Handle
  1/2IN Gypsum,                           ! Name
  Smooth,                                 ! Roughness
  0.01271,                                ! Thickness {m}
  0.16,                                   ! Conductivity {W/m-K}
  784.9,                                  ! Density {kg/m3}
  830,                                    ! Specific Heat {J/kg-K}
  0.9,                                    ! Thermal Absorptance
  0.92,                                   ! Solar Absorptance
  0.92;                                   ! Visible Absorptance

OS:ComponentCost:LineItem,
  {2ecfdd90-6e01-4aee-8ece-a8638a11a1fc}, ! Handle
  90.1-2004 Nonres 3C Ext Wall Metal Building, ! Name
  ,                                       ! Type
  Construction,                           ! Line Item Type
  90.1-2004 Nonres 3C Ext Wall Metal Building, ! Item Name
  ,                                       ! Object End Use Key
  ,                                       ! Quantity {dimensionless}
  98.78,                                  ! Material Cost {$}
  CostPerArea;                            ! Material Cost Units

OS:ComponentData,
  {2b35795d-2596-4691-a112-640721b8b83c}, ! Handle
  Component Data 1,                       ! Name
  {a574c808-6b01-45aa-93cf-5816089268d2}, ! UUID
  {50044c4e-5b38-4161-acb0-1c7f252338a2}, ! Version UUID
  1363981655,                             ! Creation Timestamp
  1363981655,                             ! Version Timestamp
  {1c7c1ea6-7528-4531-b318-1aa5531398e2}, ! Name of Object 1
  {eb3e87d4-c8d6-43e8-bdb1-a9ec60ee0508}, ! Name of Object 2
  {639de793-7c00-41a9-8583-6d1fb87dedc6}, ! Name of Object 3
  {5a6eb8d2-ddf5-4fc0-b02f-adede3d47736}, ! Name of Object 4
  {2ecfdd90-6e01-4aee-8ece-a8638a11a1fc}; ! Name of Object 5

