
OS:Version,
  {609bf331-28a1-4792-a090-67bacf31b753}, ! Handle
  0.9.3;                                  ! Version Identifier

OS:ComponentCost:LineItem,
  {357eb4ba-7a15-4062-a8fc-5a554a5ff041}, ! Handle
  90.1-2004 Nonres 3C Ext Wall Metal Building, ! Name
  ,                                       ! Type
  Construction,                           ! Line Item Type
  90.1-2004 Nonres 3C Ext Wall Metal Building, ! Item Name
  ,                                       ! Object End Use Key
  ,                                       ! Quantity {dimensionless}
  98.78,                                  ! Material Cost {$}
  CostPerArea;                            ! Material Cost Units

OS:Material,
  {2a93f871-21ff-4091-8368-eb9821976f70}, ! Handle
  Wall Insulation,                        ! Name
  MediumRough,                            ! Roughness
  0.0598725,                              ! Thickness {m}
  0.045,                                  ! Conductivity {W/m-K}
  265,                                    ! Density {kg/m3}
  836.8,                                  ! Specific Heat {J/kg-K}
  0.9,                                    ! Thermal Absorptance
  0.7,                                    ! Solar Absorptance
  0.7;                                    ! Visible Absorptance

OS:Material,
  {a9a820d3-74e0-44b5-a4b3-af2f2159c5b2}, ! Handle
  Metal Siding,                           ! Name
  Smooth,                                 ! Roughness
  0.0015,                                 ! Thickness {m}
  44.96,                                  ! Conductivity {W/m-K}
  7688.86,                                ! Density {kg/m3}
  410,                                    ! Specific Heat {J/kg-K}
  0.9,                                    ! Thermal Absorptance
  0.2,                                    ! Solar Absorptance
  0.2;                                    ! Visible Absorptance

OS:Material,
  {2b80b241-5392-48cd-9d47-3bf5341e335c}, ! Handle
  1/2IN Gypsum,                           ! Name
  Smooth,                                 ! Roughness
  0.01271,                                ! Thickness {m}
  0.16,                                   ! Conductivity {W/m-K}
  784.9,                                  ! Density {kg/m3}
  830,                                    ! Specific Heat {J/kg-K}
  0.9,                                    ! Thermal Absorptance
  0.92,                                   ! Solar Absorptance
  0.92;                                   ! Visible Absorptance

OS:Construction,
  {6af3b973-ddb3-4447-852c-c3bb38b034b8}, ! Handle
  90.1-2004 Nonres 3C Ext Wall Metal Building, ! Name
  ,                                       ! Surface Rendering Name
  {a9a820d3-74e0-44b5-a4b3-af2f2159c5b2}, ! Layer 1
  {2a93f871-21ff-4091-8368-eb9821976f70}, ! Layer 2
  {2b80b241-5392-48cd-9d47-3bf5341e335c}; ! Layer 3

