
OS:Version,
  {7f28c534-8a74-4d36-b24b-1df47b7773f2}, ! Handle
  0.9.3;                                  ! Version Identifier

OS:Construction,
  {2f68f432-139a-49f7-811b-d7a05ed99d4d}, ! Handle
  Title 24-2008 Nonres 6 Ext Wall Steel-Framed, ! Name
  ,                                       ! Surface Rendering Name
  {c98d5f50-cd58-41c5-9395-5191ee3aa2b0}, ! Layer 1
  {6a83f16d-3316-4063-8914-de0a0cfa68b5}, ! Layer 2
  {686f95c0-4a04-4bdd-a6fb-081d93199903}; ! Layer 3

OS:Material:NoMass,
  {c98d5f50-cd58-41c5-9395-5191ee3aa2b0}, ! Handle
  MAT-SHEATH,                             ! Name
  Rough,                                  ! Roughness
  0.36256,                                ! Thermal Resistance {m2-K/W}
  0.9,                                    ! Thermal Absorptance
  0.7,                                    ! Solar Absorptance
  0.7;                                    ! Visible Absorptance

OS:Material,
  {6a83f16d-3316-4063-8914-de0a0cfa68b5}, ! Handle
  Wall Insulation [159],                  ! Name
  MediumRough,                            ! Roughness
  0.0812,                                 ! Thickness {m}
  0.045,                                  ! Conductivity {W/m-K}
  265,                                    ! Density {kg/m3}
  836.8,                                  ! Specific Heat {J/kg-K}
  0.9,                                    ! Thermal Absorptance
  0.7,                                    ! Solar Absorptance
  0.7;                                    ! Visible Absorptance

OS:Material,
  {686f95c0-4a04-4bdd-a6fb-081d93199903}, ! Handle
  1/2IN Gypsum,                           ! Name
  Smooth,                                 ! Roughness
  0.01271,                                ! Thickness {m}
  0.16,                                   ! Conductivity {W/m-K}
  784.9,                                  ! Density {kg/m3}
  830,                                    ! Specific Heat {J/kg-K}
  0.9,                                    ! Thermal Absorptance
  0.92,                                   ! Solar Absorptance
  0.92;                                   ! Visible Absorptance

OS:ComponentCost:LineItem,
  {2260950d-7135-4f08-816a-a3b80b08d14f}, ! Handle
  Title 24-2008 Nonres 6 Ext Wall Steel-Framed, ! Name
  ,                                       ! Type
  Construction,                           ! Line Item Type
  Title 24-2008 Nonres 6 Ext Wall Steel-Framed, ! Item Name
  ,                                       ! Object End Use Key
  ,                                       ! Quantity {dimensionless}
  155.805,                                ! Material Cost {$}
  CostPerArea;                            ! Material Cost Units

