
OS:Version,
  {7bf521ce-e285-4aa6-a486-2d359d4f1a45}, ! Handle
  0.9.3;                                  ! Version Identifier

OS:WindowMaterial:Glazing,
  {01c1a794-3eeb-40da-b6ca-96db25fc18f2}, ! Handle
  Theoretical Glass [117],                ! Name
  SpectralAverage,                        ! Optical Data Type
  ,                                       ! Window Glass Spectral Data Set Name
  0.003,                                  ! Thickness {m}
  0.470834,                               ! Solar Transmittance at Normal Incidence
  0.479166,                               ! Front Side Solar Reflectance at Normal Incidence
  0.479166,                               ! Back Side Solar Reflectance at Normal Incidence
  0.529698,                               ! Visible Transmittance at Normal Incidence
  0.420302,                               ! Front Side Visible Reflectance at Normal Incidence
  0.420302,                               ! Back Side Visible Reflectance at Normal Incidence
  0,                                      ! Infrared Transmittance at Normal Incidence
  0.9,                                    ! Front Side Infrared Hemispherical Emissivity
  0.9,                                    ! Back Side Infrared Hemispherical Emissivity
  0.0192257;                              ! Conductivity {W/m-K}

OS:ComponentCost:LineItem,
  {acbd4ef6-7404-40f7-803b-8603014c67f4}, ! Handle
  90.1-1999 Res B25 Skylight without Curb, ! Name
  ,                                       ! Type
  Construction,                           ! Line Item Type
  90.1-1999 Res B25 Skylight without Curb, ! Item Name
  ,                                       ! Object End Use Key
  ,                                       ! Quantity {dimensionless}
  537.952,                                ! Material Cost {$}
  CostPerArea;                            ! Material Cost Units

OS:Construction,
  {d416dc30-4a6e-48ae-bcb9-aaece5c48672}, ! Handle
  90.1-1999 Res B25 Skylight without Curb, ! Name
  ,                                       ! Surface Rendering Name
  {01c1a794-3eeb-40da-b6ca-96db25fc18f2}; ! Layer 1

