
OS:Version,
  {c917fa0b-d2d1-4037-95e9-f7b7c904d541}, ! Handle
  0.9.3;                                  ! Version Identifier

OS:Material,
  {9aa7080f-9032-464c-abf5-ca01c9f0317f}, ! Handle
  MAT-CC05 4 HW CONCRETE,                 ! Name
  Rough,                                  ! Roughness
  0.1016,                                 ! Thickness {m}
  1.311,                                  ! Conductivity {W/m-K}
  2240,                                   ! Density {kg/m3}
  836.8,                                  ! Specific Heat {J/kg-K}
  0.9,                                    ! Thermal Absorptance
  0.7,                                    ! Solar Absorptance
  0.7;                                    ! Visible Absorptance

OS:Construction,
  {37686a3d-d542-4d07-b0bf-e5cc8437deee}, ! Handle
  90.1-1999 Nonres B20 Ext Slab Unheated - 4in Slab without Carpet, ! Name
  ,                                       ! Surface Rendering Name
  {9aa7080f-9032-464c-abf5-ca01c9f0317f}; ! Layer 1

OS:ComponentCost:LineItem,
  {d033865b-cf92-494f-b95d-4e2fe792d0d8}, ! Handle
  90.1-1999 Nonres B20 Ext Slab Unheated - 4in Slab without Carpet, ! Name
  ,                                       ! Type
  Construction,                           ! Line Item Type
  90.1-1999 Nonres B20 Ext Slab Unheated - 4in Slab without Carpet, ! Item Name
  ,                                       ! Object End Use Key
  ,                                       ! Quantity {dimensionless}
  45.52,                                  ! Material Cost {$}
  CostPerArea;                            ! Material Cost Units

