
OS:Version,
  {1b2c11c5-9b1c-4826-976e-034b70ec2afc}, ! Handle
  0.9.3;                                  ! Version Identifier

OS:Construction,
  {cebc1577-f0a5-43ca-88d6-6dbb9678694c}, ! Handle
  90.1-2004 Nonres 3A Ext Wall Steel-Framed, ! Name
  ,                                       ! Surface Rendering Name
  {97ca701e-544c-4247-93f3-b3a171ce1413}, ! Layer 1
  {82216f15-3770-46aa-b1a8-102964835adf}, ! Layer 2
  {56c46749-ad1b-4770-be6c-0476fc53e376}; ! Layer 3

OS:Material:NoMass,
  {97ca701e-544c-4247-93f3-b3a171ce1413}, ! Handle
  MAT-SHEATH,                             ! Name
  Rough,                                  ! Roughness
  0.36256,                                ! Thermal Resistance {m2-K/W}
  0.9,                                    ! Thermal Absorptance
  0.7,                                    ! Solar Absorptance
  0.7;                                    ! Visible Absorptance

OS:Material,
  {82216f15-3770-46aa-b1a8-102964835adf}, ! Handle
  Wall Insulation [1],                    ! Name
  MediumRough,                            ! Roughness
  0.0373223,                              ! Thickness {m}
  0.045,                                  ! Conductivity {W/m-K}
  265,                                    ! Density {kg/m3}
  836.8,                                  ! Specific Heat {J/kg-K}
  0.9,                                    ! Thermal Absorptance
  0.7,                                    ! Solar Absorptance
  0.7;                                    ! Visible Absorptance

OS:Material,
  {56c46749-ad1b-4770-be6c-0476fc53e376}, ! Handle
  1/2IN Gypsum,                           ! Name
  Smooth,                                 ! Roughness
  0.01271,                                ! Thickness {m}
  0.16,                                   ! Conductivity {W/m-K}
  784.9,                                  ! Density {kg/m3}
  830,                                    ! Specific Heat {J/kg-K}
  0.9,                                    ! Thermal Absorptance
  0.92,                                   ! Solar Absorptance
  0.92;                                   ! Visible Absorptance

OS:ComponentCost:LineItem,
  {6c94d46a-0dd2-4045-8ec1-219b6d0d4ed0}, ! Handle
  90.1-2004 Nonres 3A Ext Wall Steel-Framed, ! Name
  ,                                       ! Type
  Construction,                           ! Line Item Type
  90.1-2004 Nonres 3A Ext Wall Steel-Framed, ! Item Name
  ,                                       ! Object End Use Key
  ,                                       ! Quantity {dimensionless}
  87.08,                                  ! Material Cost {$}
  CostPerArea;                            ! Material Cost Units

