
OS:Version,
  {93d5c507-4a1d-44e3-97a6-e26722df4e83}, ! Handle
  0.9.3;                                  ! Version Identifier

OS:Construction,
  {e327a741-a23d-4941-b6b7-b46b0c38e972}, ! Handle
  AEDG-SmOffice 3A Window Fixed,          ! Name
  ,                                       ! Surface Rendering Name
  {c7f0353f-b3e8-464e-84f8-8c72905a9f14}; ! Layer 1

OS:WindowMaterial:Glazing,
  {c7f0353f-b3e8-464e-84f8-8c72905a9f14}, ! Handle
  Theoretical Glass [232],                ! Name
  SpectralAverage,                        ! Optical Data Type
  ,                                       ! Window Glass Spectral Data Set Name
  0.003,                                  ! Thickness {m}
  0.454425,                               ! Solar Transmittance at Normal Incidence
  0.495575,                               ! Front Side Solar Reflectance at Normal Incidence
  0.495575,                               ! Back Side Solar Reflectance at Normal Incidence
  0.493419,                               ! Visible Transmittance at Normal Incidence
  0.456581,                               ! Front Side Visible Reflectance at Normal Incidence
  0.456581,                               ! Back Side Visible Reflectance at Normal Incidence
  0,                                      ! Infrared Transmittance at Normal Incidence
  0.9,                                    ! Front Side Infrared Hemispherical Emissivity
  0.9,                                    ! Back Side Infrared Hemispherical Emissivity
  0.0129919;                              ! Conductivity {W/m-K}

OS:ComponentCost:LineItem,
  {521cc955-de1f-493e-b734-1207e1b91abe}, ! Handle
  AEDG-SmOffice 3A Window Fixed,          ! Name
  ,                                       ! Type
  Construction,                           ! Line Item Type
  AEDG-SmOffice 3A Window Fixed,          ! Item Name
  ,                                       ! Object End Use Key
  ,                                       ! Quantity {dimensionless}
  537.952,                                ! Material Cost {$}
  CostPerArea;                            ! Material Cost Units

OS:ComponentData,
  {46a8be6c-946a-4608-ba38-622bdef98e20}, ! Handle
  Component Data 1,                       ! Name
  {b7dee341-6d89-44c7-9c66-92abe28a2dee}, ! UUID
  {79dcc23c-2b63-4d4d-8844-402591147e7d}, ! Version UUID
  1363981949,                             ! Creation Timestamp
  1363981949,                             ! Version Timestamp
  {e327a741-a23d-4941-b6b7-b46b0c38e972}, ! Name of Object 1
  {c7f0353f-b3e8-464e-84f8-8c72905a9f14}, ! Name of Object 2
  {521cc955-de1f-493e-b734-1207e1b91abe}; ! Name of Object 3

