
OS:Version,
  {1055626d-c81c-458e-ab05-d584ee336159}, ! Handle
  0.9.3;                                  ! Version Identifier

OS:WindowMaterial:Glazing,
  {4ead68cf-8081-4652-ac41-683aeeb82300}, ! Handle
  Theoretical Glass [232],                ! Name
  SpectralAverage,                        ! Optical Data Type
  ,                                       ! Window Glass Spectral Data Set Name
  0.003,                                  ! Thickness {m}
  0.454425,                               ! Solar Transmittance at Normal Incidence
  0.495575,                               ! Front Side Solar Reflectance at Normal Incidence
  0.495575,                               ! Back Side Solar Reflectance at Normal Incidence
  0.493419,                               ! Visible Transmittance at Normal Incidence
  0.456581,                               ! Front Side Visible Reflectance at Normal Incidence
  0.456581,                               ! Back Side Visible Reflectance at Normal Incidence
  0,                                      ! Infrared Transmittance at Normal Incidence
  0.9,                                    ! Front Side Infrared Hemispherical Emissivity
  0.9,                                    ! Back Side Infrared Hemispherical Emissivity
  0.0129919;                              ! Conductivity {W/m-K}

OS:ComponentCost:LineItem,
  {058ff622-e981-4f90-a5b1-939345acf5f4}, ! Handle
  AEDG-SmOffice 3A Window Fixed,          ! Name
  ,                                       ! Type
  Construction,                           ! Line Item Type
  AEDG-SmOffice 3A Window Fixed,          ! Item Name
  ,                                       ! Object End Use Key
  ,                                       ! Quantity {dimensionless}
  537.952,                                ! Material Cost {$}
  CostPerArea;                            ! Material Cost Units

OS:Construction,
  {82539e58-393f-41f9-acfe-345dea972bc4}, ! Handle
  AEDG-SmOffice 3A Window Fixed,          ! Name
  ,                                       ! Surface Rendering Name
  {4ead68cf-8081-4652-ac41-683aeeb82300}; ! Layer 1

