
OS:Version,
  {c775c4c0-d98e-4af5-a53f-f351d99c5dcb}, !- Handle
  1.1.0;                                  !- Version Identifier

OS:Construction,
  {67666783-38fd-4885-884f-ddbdf2a367e3}, !- Handle
  Dbl Ref-C-H Clr 6mm/13mm Arg,           !- Name
  ,                                       !- Surface Rendering Name
  {7662960d-e83e-4a50-9833-028c6897e466}, !- Layer 1
  {afe90ec7-7c24-44cb-854d-37b991ee714b}, !- Layer 2
  {484c073d-6ed0-4049-9030-f2ab19f095a4}; !- Layer 3

OS:WindowMaterial:Glazing,
  {7662960d-e83e-4a50-9833-028c6897e466}, !- Handle
  REF C CLEAR HI 6MM,                     !- Name
  SpectralAverage,                        !- Optical Data Type
  ,                                       !- Window Glass Spectral Data Set Name
  0.006,                                  !- Thickness {m}
  0.2,                                    !- Solar Transmittance at Normal Incidence
  0.16,                                   !- Front Side Solar Reflectance at Normal Incidence
  0.39,                                   !- Back Side Solar Reflectance at Normal Incidence
  0.22,                                   !- Visible Transmittance at Normal Incidence
  0.17,                                   !- Front Side Visible Reflectance at Normal Incidence
  0.35,                                   !- Back Side Visible Reflectance at Normal Incidence
  0,                                      !- Infrared Transmittance at Normal Incidence
  0.84,                                   !- Front Side Infrared Hemispherical Emissivity
  0.55,                                   !- Back Side Infrared Hemispherical Emissivity
  0.9;                                    !- Conductivity {W/m-K}

OS:WindowMaterial:Gas,
  {afe90ec7-7c24-44cb-854d-37b991ee714b}, !- Handle
  ARGON 13MM,                             !- Name
  Argon,                                  !- Gas Type
  0.0127;                                 !- Thickness {m}

OS:WindowMaterial:Glazing,
  {484c073d-6ed0-4049-9030-f2ab19f095a4}, !- Handle
  CLEAR 6MM,                              !- Name
  SpectralAverage,                        !- Optical Data Type
  ,                                       !- Window Glass Spectral Data Set Name
  0.006,                                  !- Thickness {m}
  0.775,                                  !- Solar Transmittance at Normal Incidence
  0.071,                                  !- Front Side Solar Reflectance at Normal Incidence
  0.071,                                  !- Back Side Solar Reflectance at Normal Incidence
  0.881,                                  !- Visible Transmittance at Normal Incidence
  0.08,                                   !- Front Side Visible Reflectance at Normal Incidence
  0.08,                                   !- Back Side Visible Reflectance at Normal Incidence
  0,                                      !- Infrared Transmittance at Normal Incidence
  0.84,                                   !- Front Side Infrared Hemispherical Emissivity
  0.84,                                   !- Back Side Infrared Hemispherical Emissivity
  0.9;                                    !- Conductivity {W/m-K}

