
OS:Version,
  {f996005f-9fae-4470-9cbf-bd5d9316870d}, ! Handle
  0.9.3;                                  ! Version Identifier

OS:Material,
  {5fad1ea9-d1af-4375-bec5-ddc392a5bb4b}, ! Handle
  Wood Siding,                            ! Name
  MediumSmooth,                           ! Roughness
  0.01,                                   ! Thickness {m}
  0.11,                                   ! Conductivity {W/m-K}
  544.62,                                 ! Density {kg/m3}
  1210,                                   ! Specific Heat {J/kg-K}
  0.9,                                    ! Thermal Absorptance
  0.78,                                   ! Solar Absorptance
  0.78;                                   ! Visible Absorptance

OS:ComponentCost:LineItem,
  {a5fa905a-2b62-4efe-95a1-710f3a38c7e9}, ! Handle
  90.1-2004 Nonres 4B Ext Wall Wood-Framed and Other, ! Name
  ,                                       ! Type
  Construction,                           ! Line Item Type
  90.1-2004 Nonres 4B Ext Wall Wood-Framed and Other, ! Item Name
  ,                                       ! Object End Use Key
  ,                                       ! Quantity {dimensionless}
  73.056,                                 ! Material Cost {$}
  CostPerArea;                            ! Material Cost Units

OS:Construction,
  {3c55e448-d9ab-40f5-ab7e-a356f597a6d9}, ! Handle
  90.1-2004 Nonres 4B Ext Wall Wood-Framed and Other, ! Name
  ,                                       ! Surface Rendering Name
  {5fad1ea9-d1af-4375-bec5-ddc392a5bb4b}, ! Layer 1
  {fbc07b1f-bb39-4190-a8a4-dcc8a9134e22}, ! Layer 2
  {2df33862-383d-4e94-bc76-04be74abd5b2}; ! Layer 3

OS:Material,
  {fbc07b1f-bb39-4190-a8a4-dcc8a9134e22}, ! Handle
  Wall Insulation [2],                    ! Name
  MediumRough,                            ! Roughness
  0.0746874,                              ! Thickness {m}
  0.045,                                  ! Conductivity {W/m-K}
  265,                                    ! Density {kg/m3}
  836.8,                                  ! Specific Heat {J/kg-K}
  0.9,                                    ! Thermal Absorptance
  0.7,                                    ! Solar Absorptance
  0.7;                                    ! Visible Absorptance

OS:Material,
  {2df33862-383d-4e94-bc76-04be74abd5b2}, ! Handle
  1/2IN Gypsum,                           ! Name
  Smooth,                                 ! Roughness
  0.01271,                                ! Thickness {m}
  0.16,                                   ! Conductivity {W/m-K}
  784.9,                                  ! Density {kg/m3}
  830,                                    ! Specific Heat {J/kg-K}
  0.9,                                    ! Thermal Absorptance
  0.92,                                   ! Solar Absorptance
  0.92;                                   ! Visible Absorptance

