
OS:Version,
  {35264d63-d186-46ee-bb75-d2a1e15be500}, ! Handle
  0.9.3;                                  ! Version Identifier

OS:Construction,
  {3adc9ab1-6760-439b-a61b-abf1d06e071f}, ! Handle
  90.1-2004 Nonres 4B Ext Wall Wood-Framed and Other, ! Name
  ,                                       ! Surface Rendering Name
  {12c4eef5-f5f3-42fb-a026-5e813184078a}, ! Layer 1
  {bad59216-07d5-45ca-9340-a54216ff47db}, ! Layer 2
  {3cab232a-4e5b-44e5-9ae4-d15496dab076}; ! Layer 3

OS:Material,
  {12c4eef5-f5f3-42fb-a026-5e813184078a}, ! Handle
  Wood Siding,                            ! Name
  MediumSmooth,                           ! Roughness
  0.01,                                   ! Thickness {m}
  0.11,                                   ! Conductivity {W/m-K}
  544.62,                                 ! Density {kg/m3}
  1210,                                   ! Specific Heat {J/kg-K}
  0.9,                                    ! Thermal Absorptance
  0.78,                                   ! Solar Absorptance
  0.78;                                   ! Visible Absorptance

OS:Material,
  {bad59216-07d5-45ca-9340-a54216ff47db}, ! Handle
  Wall Insulation [2],                    ! Name
  MediumRough,                            ! Roughness
  0.0746874,                              ! Thickness {m}
  0.045,                                  ! Conductivity {W/m-K}
  265,                                    ! Density {kg/m3}
  836.8,                                  ! Specific Heat {J/kg-K}
  0.9,                                    ! Thermal Absorptance
  0.7,                                    ! Solar Absorptance
  0.7;                                    ! Visible Absorptance

OS:Material,
  {3cab232a-4e5b-44e5-9ae4-d15496dab076}, ! Handle
  1/2IN Gypsum,                           ! Name
  Smooth,                                 ! Roughness
  0.01271,                                ! Thickness {m}
  0.16,                                   ! Conductivity {W/m-K}
  784.9,                                  ! Density {kg/m3}
  830,                                    ! Specific Heat {J/kg-K}
  0.9,                                    ! Thermal Absorptance
  0.92,                                   ! Solar Absorptance
  0.92;                                   ! Visible Absorptance

OS:ComponentCost:LineItem,
  {9a2a2704-0ef7-4439-a813-03c198a2bb72}, ! Handle
  90.1-2004 Nonres 4B Ext Wall Wood-Framed and Other, ! Name
  ,                                       ! Type
  Construction,                           ! Line Item Type
  90.1-2004 Nonres 4B Ext Wall Wood-Framed and Other, ! Item Name
  ,                                       ! Object End Use Key
  ,                                       ! Quantity {dimensionless}
  73.056,                                 ! Material Cost {$}
  CostPerArea;                            ! Material Cost Units

OS:ComponentData,
  {e8857815-c112-4b8f-a2f9-73c33d405a43}, ! Handle
  Component Data 1,                       ! Name
  {dae2a053-7323-437d-8317-72357cff76e2}, ! UUID
  {5fa3c3de-74d0-43af-8bc1-a7c45bfca6e7}, ! Version UUID
  1363981670,                             ! Creation Timestamp
  1363981670,                             ! Version Timestamp
  {3adc9ab1-6760-439b-a61b-abf1d06e071f}, ! Name of Object 1
  {12c4eef5-f5f3-42fb-a026-5e813184078a}, ! Name of Object 2
  {bad59216-07d5-45ca-9340-a54216ff47db}, ! Name of Object 3
  {3cab232a-4e5b-44e5-9ae4-d15496dab076}, ! Name of Object 4
  {9a2a2704-0ef7-4439-a813-03c198a2bb72}; ! Name of Object 5

