
OS:Version,
  {2bb65b9c-8328-43e0-a318-bde8470c9d3b}, ! Handle
  0.9.3;                                  ! Version Identifier

OS:Material,
  {e7052249-2c9e-4d15-a54f-8106060ac455}, ! Handle
  1/2IN Gypsum,                           ! Name
  Smooth,                                 ! Roughness
  0.01271,                                ! Thickness {m}
  0.16,                                   ! Conductivity {W/m-K}
  784.9,                                  ! Density {kg/m3}
  830,                                    ! Specific Heat {J/kg-K}
  0.9,                                    ! Thermal Absorptance
  0.92,                                   ! Solar Absorptance
  0.92;                                   ! Visible Absorptance

OS:Material,
  {35ec5d6c-0a15-43f3-a186-ad66022854ba}, ! Handle
  Wall Insulation [159],                  ! Name
  MediumRough,                            ! Roughness
  0.0812,                                 ! Thickness {m}
  0.045,                                  ! Conductivity {W/m-K}
  265,                                    ! Density {kg/m3}
  836.8,                                  ! Specific Heat {J/kg-K}
  0.9,                                    ! Thermal Absorptance
  0.7,                                    ! Solar Absorptance
  0.7;                                    ! Visible Absorptance

OS:ComponentCost:LineItem,
  {6578d6d8-f04a-42af-8076-d5f248c9e0be}, ! Handle
  Title 24-2008 Nonres 12 Ext Wall Wood-Framed and Other, ! Name
  ,                                       ! Type
  Construction,                           ! Line Item Type
  Title 24-2008 Nonres 12 Ext Wall Wood-Framed and Other, ! Item Name
  ,                                       ! Object End Use Key
  ,                                       ! Quantity {dimensionless}
  140.526,                                ! Material Cost {$}
  CostPerArea;                            ! Material Cost Units

OS:Material,
  {c72da0f5-e211-4d0d-8f2c-e7e096368a30}, ! Handle
  Wood Siding,                            ! Name
  MediumSmooth,                           ! Roughness
  0.01,                                   ! Thickness {m}
  0.11,                                   ! Conductivity {W/m-K}
  544.62,                                 ! Density {kg/m3}
  1210,                                   ! Specific Heat {J/kg-K}
  0.9,                                    ! Thermal Absorptance
  0.78,                                   ! Solar Absorptance
  0.78;                                   ! Visible Absorptance

OS:Construction,
  {533a88fb-94b4-408c-ba71-5d3416233c3f}, ! Handle
  Title 24-2008 Nonres 12 Ext Wall Wood-Framed and Other, ! Name
  ,                                       ! Surface Rendering Name
  {c72da0f5-e211-4d0d-8f2c-e7e096368a30}, ! Layer 1
  {35ec5d6c-0a15-43f3-a186-ad66022854ba}, ! Layer 2
  {e7052249-2c9e-4d15-a54f-8106060ac455}; ! Layer 3

