
OS:Version,
  {d17d947e-4442-45a2-a61b-7a11198f03cb}, ! Handle
  0.9.3;                                  ! Version Identifier

OS:Construction,
  {97b80131-f74b-4617-bb8f-316824f38499}, ! Handle
  AEDG-SmOffice 6B Door Swinging,         ! Name
  ,                                       ! Surface Rendering Name
  {ecc6b8db-19ce-4937-8108-1ed2bc8903c0}; ! Layer 1

OS:Material:NoMass,
  {ecc6b8db-19ce-4937-8108-1ed2bc8903c0}, ! Handle
  DoorMaterial,                           ! Name
  MediumRough,                            ! Roughness
  0.251589,                               ! Thermal Resistance {m2-K/W}
  0.9,                                    ! Thermal Absorptance
  0.7,                                    ! Solar Absorptance
  0.7;                                    ! Visible Absorptance

OS:ComponentCost:LineItem,
  {4c5c1733-697e-4406-9a60-5e7f2f6079d5}, ! Handle
  AEDG-SmOffice 6B Door Swinging,         ! Name
  ,                                       ! Type
  Construction,                           ! Line Item Type
  AEDG-SmOffice 6B Door Swinging,         ! Item Name
  ,                                       ! Object End Use Key
  ,                                       ! Quantity {dimensionless}
  0,                                      ! Material Cost {$}
  CostPerArea;                            ! Material Cost Units

OS:ComponentData,
  {d470adfc-405c-4aec-9b63-56f4c22fdcf0}, ! Handle
  Component Data 1,                       ! Name
  {ff4c2988-4e38-4774-bdb2-e60c9c9d52c5}, ! UUID
  {c7b989ec-32e3-46be-ac9d-22e07722a093}, ! Version UUID
  1363981961,                             ! Creation Timestamp
  1363981961,                             ! Version Timestamp
  {97b80131-f74b-4617-bb8f-316824f38499}, ! Name of Object 1
  {ecc6b8db-19ce-4937-8108-1ed2bc8903c0}, ! Name of Object 2
  {4c5c1733-697e-4406-9a60-5e7f2f6079d5}; ! Name of Object 3

