
OS:Version,
  {b06a1b2e-a66f-4ee2-9773-c221bfde5916}, ! Handle
  0.9.3;                                  ! Version Identifier

OS:Construction,
  {7eb6f627-1666-43e3-8784-8a9cd9271248}, ! Handle
  90.1-2007 Res 6B Ext Slab Unheated - 4in Slab without Carpet, ! Name
  ,                                       ! Surface Rendering Name
  {05663fce-d1a8-4131-a211-bbe27cfa40d4}; ! Layer 1

OS:Material,
  {05663fce-d1a8-4131-a211-bbe27cfa40d4}, ! Handle
  MAT-CC05 4 HW CONCRETE,                 ! Name
  Rough,                                  ! Roughness
  0.1016,                                 ! Thickness {m}
  1.311,                                  ! Conductivity {W/m-K}
  2240,                                   ! Density {kg/m3}
  836.8,                                  ! Specific Heat {J/kg-K}
  0.9,                                    ! Thermal Absorptance
  0.7,                                    ! Solar Absorptance
  0.7;                                    ! Visible Absorptance

OS:ComponentCost:LineItem,
  {7436132d-bc3b-49fc-ada8-e7d92f071acd}, ! Handle
  90.1-2007 Res 6B Ext Slab Unheated - 4in Slab without Carpet, ! Name
  ,                                       ! Type
  Construction,                           ! Line Item Type
  90.1-2007 Res 6B Ext Slab Unheated - 4in Slab without Carpet, ! Item Name
  ,                                       ! Object End Use Key
  ,                                       ! Quantity {dimensionless}
  45.52,                                  ! Material Cost {$}
  CostPerArea;                            ! Material Cost Units

OS:ComponentData,
  {a452e09f-cec7-4d6f-9a78-be2f096646b4}, ! Handle
  Component Data 1,                       ! Name
  {51c9f657-24a0-4c46-9325-fa4132b46737}, ! UUID
  {027d29aa-39ff-4a86-8792-454e3ec143ad}, ! Version UUID
  1363981865,                             ! Creation Timestamp
  1363981865,                             ! Version Timestamp
  {7eb6f627-1666-43e3-8784-8a9cd9271248}, ! Name of Object 1
  {05663fce-d1a8-4131-a211-bbe27cfa40d4}, ! Name of Object 2
  {7436132d-bc3b-49fc-ada8-e7d92f071acd}; ! Name of Object 3

