
OS:Version,
  {764bb0ba-cccb-4ed2-9932-970c4a301a95}, ! Handle
  0.9.3;                                  ! Version Identifier

OS:Construction,
  {789db37d-30a5-4db6-8c42-566832613a1a}, ! Handle
  90.1-2007 Res 6B Ext Slab Unheated - 4in Slab without Carpet, ! Name
  ,                                       ! Surface Rendering Name
  {dab2241a-df60-4275-98af-e7e736e5856e}; ! Layer 1

OS:Material,
  {dab2241a-df60-4275-98af-e7e736e5856e}, ! Handle
  MAT-CC05 4 HW CONCRETE,                 ! Name
  Rough,                                  ! Roughness
  0.1016,                                 ! Thickness {m}
  1.311,                                  ! Conductivity {W/m-K}
  2240,                                   ! Density {kg/m3}
  836.8,                                  ! Specific Heat {J/kg-K}
  0.9,                                    ! Thermal Absorptance
  0.7,                                    ! Solar Absorptance
  0.7;                                    ! Visible Absorptance

OS:ComponentCost:LineItem,
  {914f5611-f086-40fd-93a6-597e582a21ec}, ! Handle
  90.1-2007 Res 6B Ext Slab Unheated - 4in Slab without Carpet, ! Name
  ,                                       ! Type
  Construction,                           ! Line Item Type
  90.1-2007 Res 6B Ext Slab Unheated - 4in Slab without Carpet, ! Item Name
  ,                                       ! Object End Use Key
  ,                                       ! Quantity {dimensionless}
  45.52,                                  ! Material Cost {$}
  CostPerArea;                            ! Material Cost Units

