
OS:Version,
  {35f30a9f-9a31-4185-96cd-f83dbe203727}, ! Handle
  0.9.3;                                  ! Version Identifier

OS:Construction,
  {ad1bebd8-de3d-4997-87e6-f0a69a9f2c0a}, ! Handle
  Title 24-2008 Nonres 10 Skylight Glass Skylight with Curb, ! Name
  ,                                       ! Surface Rendering Name
  {d40303d9-934b-47d9-9f32-644418843c60}; ! Layer 1

OS:WindowMaterial:Glazing,
  {d40303d9-934b-47d9-9f32-644418843c60}, ! Handle
  Theoretical Glass [665],                ! Name
  SpectralAverage,                        ! Optical Data Type
  ,                                       ! Window Glass Spectral Data Set Name
  0.003,                                  ! Thickness {m}
  0.347698,                               ! Solar Transmittance at Normal Incidence
  0.602302,                               ! Front Side Solar Reflectance at Normal Incidence
  0.602302,                               ! Back Side Solar Reflectance at Normal Incidence
  0.360158,                               ! Visible Transmittance at Normal Incidence
  0.589842,                               ! Front Side Visible Reflectance at Normal Incidence
  0.589842,                               ! Back Side Visible Reflectance at Normal Incidence
  0,                                      ! Infrared Transmittance at Normal Incidence
  0.91,                                   ! Front Side Infrared Hemispherical Emissivity
  0.91,                                   ! Back Side Infrared Hemispherical Emissivity
  0.387053;                               ! Conductivity {W/m-K}

OS:ComponentCost:LineItem,
  {8757b0a5-3bb5-4129-98e8-0af4e1c7f3e8}, ! Handle
  Title 24-2008 Nonres 10 Skylight Glass Skylight with Curb, ! Name
  ,                                       ! Type
  Construction,                           ! Line Item Type
  Title 24-2008 Nonres 10 Skylight Glass Skylight with Curb, ! Item Name
  ,                                       ! Object End Use Key
  ,                                       ! Quantity {dimensionless}
  480.601,                                ! Material Cost {$}
  CostPerArea;                            ! Material Cost Units

OS:ComponentData,
  {c3cae67f-cd6a-4b36-a633-4fc3c68c7245}, ! Handle
  Component Data 1,                       ! Name
  {35d9a985-a4a8-422c-8ebb-e30a2629242f}, ! UUID
  {43958b84-723c-41d2-b64f-290f99870170}, ! Version UUID
  1363982067,                             ! Creation Timestamp
  1363982067,                             ! Version Timestamp
  {ad1bebd8-de3d-4997-87e6-f0a69a9f2c0a}, ! Name of Object 1
  {d40303d9-934b-47d9-9f32-644418843c60}, ! Name of Object 2
  {8757b0a5-3bb5-4129-98e8-0af4e1c7f3e8}; ! Name of Object 3

