
OS:Version,
  {4dd39c6c-dc0e-4a47-9ed9-b980dc17db66}, ! Handle
  0.9.3;                                  ! Version Identifier

OS:Material,
  {8a472764-1dc4-47cc-993a-edfbf3ee4c9f}, ! Handle
  Wall Insulation [4],                    ! Name
  MediumRough,                            ! Roughness
  0.0338606,                              ! Thickness {m}
  0.0432,                                 ! Conductivity {W/m-K}
  91,                                     ! Density {kg/m3}
  837,                                    ! Specific Heat {J/kg-K}
  0.9,                                    ! Thermal Absorptance
  0.5,                                    ! Solar Absorptance
  0.5;                                    ! Visible Absorptance

OS:Construction,
  {d384908e-b337-4345-a8c2-25485f789b66}, ! Handle
  90.1-2001 Res B2 Ext Wall Mass,         ! Name
  ,                                       ! Surface Rendering Name
  {34f5f450-0378-4480-a516-242dc3d6a890}, ! Layer 1
  {ed3fff6f-3366-44e0-88d0-2f83324d558d}, ! Layer 2
  {8a472764-1dc4-47cc-993a-edfbf3ee4c9f}, ! Layer 3
  {a3de6264-acd2-4837-bfb7-9d36e9d8ddde}; ! Layer 4

OS:Material,
  {34f5f450-0378-4480-a516-242dc3d6a890}, ! Handle
  1IN Stucco,                             ! Name
  Smooth,                                 ! Roughness
  0.0253,                                 ! Thickness {m}
  0.6918,                                 ! Conductivity {W/m-K}
  1858,                                   ! Density {kg/m3}
  837,                                    ! Specific Heat {J/kg-K}
  0.9,                                    ! Thermal Absorptance
  0.92,                                   ! Solar Absorptance
  0.92;                                   ! Visible Absorptance

OS:Material,
  {ed3fff6f-3366-44e0-88d0-2f83324d558d}, ! Handle
  8IN Concrete HW,                        ! Name
  MediumRough,                            ! Roughness
  0.2033,                                 ! Thickness {m}
  1.7296,                                 ! Conductivity {W/m-K}
  2243,                                   ! Density {kg/m3}
  837,                                    ! Specific Heat {J/kg-K}
  0.9,                                    ! Thermal Absorptance
  0.65,                                   ! Solar Absorptance
  0.65;                                   ! Visible Absorptance

OS:Material,
  {a3de6264-acd2-4837-bfb7-9d36e9d8ddde}, ! Handle
  1/2IN Gypsum,                           ! Name
  Smooth,                                 ! Roughness
  0.01271,                                ! Thickness {m}
  0.16,                                   ! Conductivity {W/m-K}
  784.9,                                  ! Density {kg/m3}
  830,                                    ! Specific Heat {J/kg-K}
  0.9,                                    ! Thermal Absorptance
  0.92,                                   ! Solar Absorptance
  0.92;                                   ! Visible Absorptance

OS:ComponentCost:LineItem,
  {9760bf27-3a00-48e6-a48d-1c6b15baf46f}, ! Handle
  90.1-2001 Res B2 Ext Wall Mass,         ! Name
  ,                                       ! Type
  Construction,                           ! Line Item Type
  90.1-2001 Res B2 Ext Wall Mass,         ! Item Name
  ,                                       ! Object End Use Key
  ,                                       ! Quantity {dimensionless}
  58.897,                                 ! Material Cost {$}
  CostPerArea;                            ! Material Cost Units

