
OS:Version,
  {3b750049-9330-463b-9ae4-3bbf1c0bfcda}, ! Handle
  0.9.3;                                  ! Version Identifier

OS:Construction,
  {c62490e2-8a07-4096-85bf-17c5be879892}, ! Handle
  90.1-2004 Nonres 3C Ext Slab Unheated - 8in Slab without Carpet, ! Name
  ,                                       ! Surface Rendering Name
  {5f0d17fa-c222-4535-8e3d-7f41c317bc13}; ! Layer 1

OS:Material,
  {5f0d17fa-c222-4535-8e3d-7f41c317bc13}, ! Handle
  MAT-CC05 8 HW CONCRETE,                 ! Name
  Rough,                                  ! Roughness
  0.20321,                                ! Thickness {m}
  1.311,                                  ! Conductivity {W/m-K}
  2240,                                   ! Density {kg/m3}
  836.8,                                  ! Specific Heat {J/kg-K}
  0.9,                                    ! Thermal Absorptance
  0.7,                                    ! Solar Absorptance
  0.7;                                    ! Visible Absorptance

OS:ComponentCost:LineItem,
  {ebdb1bb5-97d2-4b15-9274-bf712dc2cacb}, ! Handle
  90.1-2004 Nonres 3C Ext Slab Unheated - 8in Slab without Carpet, ! Name
  ,                                       ! Type
  Construction,                           ! Line Item Type
  90.1-2004 Nonres 3C Ext Slab Unheated - 8in Slab without Carpet, ! Item Name
  ,                                       ! Object End Use Key
  ,                                       ! Quantity {dimensionless}
  45.52,                                  ! Material Cost {$}
  CostPerArea;                            ! Material Cost Units

OS:ComponentData,
  {d9dd3a8d-722f-4d7d-9dc8-ea1fb8b3fc47}, ! Handle
  Component Data 1,                       ! Name
  {990a4524-b300-476a-a46a-0935960df8e4}, ! UUID
  {23d99dd6-872e-447d-a144-82a1d90dfd3b}, ! Version UUID
  1363981656,                             ! Creation Timestamp
  1363981656,                             ! Version Timestamp
  {c62490e2-8a07-4096-85bf-17c5be879892}, ! Name of Object 1
  {5f0d17fa-c222-4535-8e3d-7f41c317bc13}, ! Name of Object 2
  {ebdb1bb5-97d2-4b15-9274-bf712dc2cacb}; ! Name of Object 3

