
OS:Version,
  {2a42b38f-d882-41dd-ad80-7c5c6727831c}, ! Handle
  0.9.3;                                  ! Version Identifier

OS:ComponentCost:LineItem,
  {987eadce-a877-40d4-abaf-3f102379743d}, ! Handle
  90.1-2004 Nonres 3C Ext Slab Unheated - 8in Slab without Carpet, ! Name
  ,                                       ! Type
  Construction,                           ! Line Item Type
  90.1-2004 Nonres 3C Ext Slab Unheated - 8in Slab without Carpet, ! Item Name
  ,                                       ! Object End Use Key
  ,                                       ! Quantity {dimensionless}
  45.52,                                  ! Material Cost {$}
  CostPerArea;                            ! Material Cost Units

OS:Construction,
  {16b16b66-c816-4a3d-a7e2-6921bb6535f5}, ! Handle
  90.1-2004 Nonres 3C Ext Slab Unheated - 8in Slab without Carpet, ! Name
  ,                                       ! Surface Rendering Name
  {2dbe9a51-0b66-405c-9afc-5d2bee34bf52}; ! Layer 1

OS:Material,
  {2dbe9a51-0b66-405c-9afc-5d2bee34bf52}, ! Handle
  MAT-CC05 8 HW CONCRETE,                 ! Name
  Rough,                                  ! Roughness
  0.20321,                                ! Thickness {m}
  1.311,                                  ! Conductivity {W/m-K}
  2240,                                   ! Density {kg/m3}
  836.8,                                  ! Specific Heat {J/kg-K}
  0.9,                                    ! Thermal Absorptance
  0.7,                                    ! Solar Absorptance
  0.7;                                    ! Visible Absorptance

