
OS:Version,
  {19123e5a-cf8b-40a8-8f5e-703a13d38b1b}, ! Handle
  0.9.3;                                  ! Version Identifier

OS:Material:NoMass,
  {a706a5bd-72d9-4d86-b6b3-545ce099d2a3}, ! Handle
  CP02 CARPET PAD,                        ! Name
  VeryRough,                              ! Roughness
  0.21648,                                ! Thermal Resistance {m2-K/W}
  0.9,                                    ! Thermal Absorptance
  0.7,                                    ! Solar Absorptance
  0.8;                                    ! Visible Absorptance

OS:Material,
  {74c7c987-bfa3-4f06-88bb-69d67341f374}, ! Handle
  Floor Insulation [4],                   ! Name
  MediumRough,                            ! Roughness
  0.0795397,                              ! Thickness {m}
  0.045,                                  ! Conductivity {W/m-K}
  265,                                    ! Density {kg/m3}
  836.8,                                  ! Specific Heat {J/kg-K}
  0.9,                                    ! Thermal Absorptance
  0.7,                                    ! Solar Absorptance
  0.7;                                    ! Visible Absorptance

OS:Material,
  {d9ed4dee-6433-46ca-9673-936cd8d60c47}, ! Handle
  MAT-CC05 8 HW CONCRETE,                 ! Name
  Rough,                                  ! Roughness
  0.20321,                                ! Thickness {m}
  1.311,                                  ! Conductivity {W/m-K}
  2240,                                   ! Density {kg/m3}
  836.8,                                  ! Specific Heat {J/kg-K}
  0.9,                                    ! Thermal Absorptance
  0.7,                                    ! Solar Absorptance
  0.7;                                    ! Visible Absorptance

OS:ComponentCost:LineItem,
  {1ad5b94f-9ef6-4993-8746-09a39e9c0246}, ! Handle
  90.1-2007 Res 4B Exposed Floor Mass,    ! Name
  ,                                       ! Type
  Construction,                           ! Line Item Type
  90.1-2007 Res 4B Exposed Floor Mass,    ! Item Name
  ,                                       ! Object End Use Key
  ,                                       ! Quantity {dimensionless}
  51.754,                                 ! Material Cost {$}
  CostPerArea;                            ! Material Cost Units

OS:Construction,
  {87be50cb-3011-426b-8f0f-bf582503544b}, ! Handle
  90.1-2007 Res 4B Exposed Floor Mass,    ! Name
  ,                                       ! Surface Rendering Name
  {74c7c987-bfa3-4f06-88bb-69d67341f374}, ! Layer 1
  {d9ed4dee-6433-46ca-9673-936cd8d60c47}, ! Layer 2
  {a706a5bd-72d9-4d86-b6b3-545ce099d2a3}; ! Layer 3

