
OS:Version,
  {3a891a69-b52d-4c2d-a911-0e9e32da8c24}, ! Handle
  0.9.3;                                  ! Version Identifier

OS:ComponentCost:LineItem,
  {2bcc82f2-c86d-4ce5-83cb-eebd627979bf}, ! Handle
  90.1-2001 Res B4 Window Fixed,          ! Name
  ,                                       ! Type
  Construction,                           ! Line Item Type
  90.1-2001 Res B4 Window Fixed,          ! Item Name
  ,                                       ! Object End Use Key
  ,                                       ! Quantity {dimensionless}
  480.171,                                ! Material Cost {$}
  CostPerArea;                            ! Material Cost Units

OS:Construction,
  {a48ff5fa-84b3-4787-9ebf-96bc3dfe2b15}, ! Handle
  90.1-2001 Res B4 Window Fixed,          ! Name
  ,                                       ! Surface Rendering Name
  {9a8f3622-7d7d-44f3-b76d-28eb49f45831}; ! Layer 1

OS:WindowMaterial:Glazing,
  {9a8f3622-7d7d-44f3-b76d-28eb49f45831}, ! Handle
  Theoretical Glass [66],                 ! Name
  SpectralAverage,                        ! Optical Data Type
  ,                                       ! Window Glass Spectral Data Set Name
  0.003,                                  ! Thickness {m}
  0.455698,                               ! Solar Transmittance at Normal Incidence
  0.494302,                               ! Front Side Solar Reflectance at Normal Incidence
  0.494302,                               ! Back Side Solar Reflectance at Normal Incidence
  0.469723,                               ! Visible Transmittance at Normal Incidence
  0.480277,                               ! Front Side Visible Reflectance at Normal Incidence
  0.480277,                               ! Back Side Visible Reflectance at Normal Incidence
  0,                                      ! Infrared Transmittance at Normal Incidence
  0.999,                                  ! Front Side Infrared Hemispherical Emissivity
  0.999,                                  ! Back Side Infrared Hemispherical Emissivity
  9.36219;                                ! Conductivity {W/m-K}

