
OS:Version,
  {892a03e4-25cb-4e1f-99b6-23404e27a5d6}, ! Handle
  0.9.3;                                  ! Version Identifier

OS:Construction,
  {591245d7-1b94-4f6c-9a6f-87d20de9a255}, ! Handle
  90.1-2001 Res B4 Window Fixed,          ! Name
  ,                                       ! Surface Rendering Name
  {918c86a3-dee4-44c2-a614-6b5a08d33e46}; ! Layer 1

OS:WindowMaterial:Glazing,
  {918c86a3-dee4-44c2-a614-6b5a08d33e46}, ! Handle
  Theoretical Glass [66],                 ! Name
  SpectralAverage,                        ! Optical Data Type
  ,                                       ! Window Glass Spectral Data Set Name
  0.003,                                  ! Thickness {m}
  0.455698,                               ! Solar Transmittance at Normal Incidence
  0.494302,                               ! Front Side Solar Reflectance at Normal Incidence
  0.494302,                               ! Back Side Solar Reflectance at Normal Incidence
  0.469723,                               ! Visible Transmittance at Normal Incidence
  0.480277,                               ! Front Side Visible Reflectance at Normal Incidence
  0.480277,                               ! Back Side Visible Reflectance at Normal Incidence
  0,                                      ! Infrared Transmittance at Normal Incidence
  0.999,                                  ! Front Side Infrared Hemispherical Emissivity
  0.999,                                  ! Back Side Infrared Hemispherical Emissivity
  9.36219;                                ! Conductivity {W/m-K}

OS:ComponentCost:LineItem,
  {7f094763-90af-4656-bb89-a125fa709d46}, ! Handle
  90.1-2001 Res B4 Window Fixed,          ! Name
  ,                                       ! Type
  Construction,                           ! Line Item Type
  90.1-2001 Res B4 Window Fixed,          ! Item Name
  ,                                       ! Object End Use Key
  ,                                       ! Quantity {dimensionless}
  480.171,                                ! Material Cost {$}
  CostPerArea;                            ! Material Cost Units

OS:ComponentData,
  {9cd33421-b3ab-48b9-ba01-221b2f6fff13}, ! Handle
  Component Data 1,                       ! Name
  {3c9ffa15-3b81-4667-9739-036792b8b343}, ! UUID
  {cd39ee22-7473-4e21-a195-9512520107d8}, ! Version UUID
  1363981468,                             ! Creation Timestamp
  1363981468,                             ! Version Timestamp
  {591245d7-1b94-4f6c-9a6f-87d20de9a255}, ! Name of Object 1
  {918c86a3-dee4-44c2-a614-6b5a08d33e46}, ! Name of Object 2
  {7f094763-90af-4656-bb89-a125fa709d46}; ! Name of Object 3

