
OS:Version,
  {22190db3-6672-4fee-9ff8-37659e5f5664}, ! Handle
  0.9.3;                                  ! Version Identifier

OS:Construction,
  {3293b4f6-6c82-4dd9-a34a-1010347e5be0}, ! Handle
  90.1-2001 Nonres B10 Ext Wall Metal Building, ! Name
  ,                                       ! Surface Rendering Name
  {4bf88e6d-565f-4e14-af06-3fbe6498dbe4}, ! Layer 1
  {7149955c-3fca-4e06-be93-da78329ac410}, ! Layer 2
  {9512157d-c8ad-4bda-a8d4-9b74644abc1e}; ! Layer 3

OS:Material,
  {4bf88e6d-565f-4e14-af06-3fbe6498dbe4}, ! Handle
  Metal Siding,                           ! Name
  Smooth,                                 ! Roughness
  0.0015,                                 ! Thickness {m}
  44.96,                                  ! Conductivity {W/m-K}
  7688.86,                                ! Density {kg/m3}
  410,                                    ! Specific Heat {J/kg-K}
  0.9,                                    ! Thermal Absorptance
  0.2,                                    ! Solar Absorptance
  0.2;                                    ! Visible Absorptance

OS:Material,
  {7149955c-3fca-4e06-be93-da78329ac410}, ! Handle
  Wall Insulation,                        ! Name
  MediumRough,                            ! Roughness
  0.0598725,                              ! Thickness {m}
  0.045,                                  ! Conductivity {W/m-K}
  265,                                    ! Density {kg/m3}
  836.8,                                  ! Specific Heat {J/kg-K}
  0.9,                                    ! Thermal Absorptance
  0.7,                                    ! Solar Absorptance
  0.7;                                    ! Visible Absorptance

OS:Material,
  {9512157d-c8ad-4bda-a8d4-9b74644abc1e}, ! Handle
  1/2IN Gypsum,                           ! Name
  Smooth,                                 ! Roughness
  0.01271,                                ! Thickness {m}
  0.16,                                   ! Conductivity {W/m-K}
  784.9,                                  ! Density {kg/m3}
  830,                                    ! Specific Heat {J/kg-K}
  0.9,                                    ! Thermal Absorptance
  0.92,                                   ! Solar Absorptance
  0.92;                                   ! Visible Absorptance

OS:ComponentCost:LineItem,
  {021a7e8d-8082-4f05-ba8d-52644fe90fc2}, ! Handle
  90.1-2001 Nonres B10 Ext Wall Metal Building, ! Name
  ,                                       ! Type
  Construction,                           ! Line Item Type
  90.1-2001 Nonres B10 Ext Wall Metal Building, ! Item Name
  ,                                       ! Object End Use Key
  ,                                       ! Quantity {dimensionless}
  98.78,                                  ! Material Cost {$}
  CostPerArea;                            ! Material Cost Units

OS:ComponentData,
  {e14a9771-84fa-45c4-8cc7-2d5a9e41537c}, ! Handle
  Component Data 1,                       ! Name
  {bf715856-76b2-49ff-817b-80566eca7e4d}, ! UUID
  {42419412-39c9-465e-be56-98ad36a63aa8}, ! Version UUID
  1363981338,                             ! Creation Timestamp
  1363981338,                             ! Version Timestamp
  {3293b4f6-6c82-4dd9-a34a-1010347e5be0}, ! Name of Object 1
  {4bf88e6d-565f-4e14-af06-3fbe6498dbe4}, ! Name of Object 2
  {7149955c-3fca-4e06-be93-da78329ac410}, ! Name of Object 3
  {9512157d-c8ad-4bda-a8d4-9b74644abc1e}, ! Name of Object 4
  {021a7e8d-8082-4f05-ba8d-52644fe90fc2}; ! Name of Object 5

