
OS:Version,
  {84b7c578-017c-4a73-b524-70734280528b}, ! Handle
  0.9.3;                                  ! Version Identifier

OS:ComponentCost:LineItem,
  {3fcd9e4b-ba6c-4f54-8d87-2b50d864c526}, ! Handle
  90.1-2001 Nonres B10 Ext Wall Metal Building, ! Name
  ,                                       ! Type
  Construction,                           ! Line Item Type
  90.1-2001 Nonres B10 Ext Wall Metal Building, ! Item Name
  ,                                       ! Object End Use Key
  ,                                       ! Quantity {dimensionless}
  98.78,                                  ! Material Cost {$}
  CostPerArea;                            ! Material Cost Units

OS:Construction,
  {d1ee2fbf-a9dc-40e4-8f8d-885451bfb896}, ! Handle
  90.1-2001 Nonres B10 Ext Wall Metal Building, ! Name
  ,                                       ! Surface Rendering Name
  {e2cedfe6-f1bd-46e8-9f45-3c5b0f16f835}, ! Layer 1
  {c81bdfe6-ff03-48bb-9a54-3f8f1cba5f24}, ! Layer 2
  {1591f0fb-4762-43b1-8267-da3c8a64affe}; ! Layer 3

OS:Material,
  {e2cedfe6-f1bd-46e8-9f45-3c5b0f16f835}, ! Handle
  Metal Siding,                           ! Name
  Smooth,                                 ! Roughness
  0.0015,                                 ! Thickness {m}
  44.96,                                  ! Conductivity {W/m-K}
  7688.86,                                ! Density {kg/m3}
  410,                                    ! Specific Heat {J/kg-K}
  0.9,                                    ! Thermal Absorptance
  0.2,                                    ! Solar Absorptance
  0.2;                                    ! Visible Absorptance

OS:Material,
  {c81bdfe6-ff03-48bb-9a54-3f8f1cba5f24}, ! Handle
  Wall Insulation,                        ! Name
  MediumRough,                            ! Roughness
  0.0598725,                              ! Thickness {m}
  0.045,                                  ! Conductivity {W/m-K}
  265,                                    ! Density {kg/m3}
  836.8,                                  ! Specific Heat {J/kg-K}
  0.9,                                    ! Thermal Absorptance
  0.7,                                    ! Solar Absorptance
  0.7;                                    ! Visible Absorptance

OS:Material,
  {1591f0fb-4762-43b1-8267-da3c8a64affe}, ! Handle
  1/2IN Gypsum,                           ! Name
  Smooth,                                 ! Roughness
  0.01271,                                ! Thickness {m}
  0.16,                                   ! Conductivity {W/m-K}
  784.9,                                  ! Density {kg/m3}
  830,                                    ! Specific Heat {J/kg-K}
  0.9,                                    ! Thermal Absorptance
  0.92,                                   ! Solar Absorptance
  0.92;                                   ! Visible Absorptance

