
OS:Version,
  {179aa51b-862e-4dfc-a427-2afb0c57211f}, ! Handle
  0.9.3;                                  ! Version Identifier

OS:Material,
  {23bb42c1-68c6-4eb3-b59d-ab637ccf1ddb}, ! Handle
  1/2IN Gypsum,                           ! Name
  Smooth,                                 ! Roughness
  0.01271,                                ! Thickness {m}
  0.16,                                   ! Conductivity {W/m-K}
  784.9,                                  ! Density {kg/m3}
  830,                                    ! Specific Heat {J/kg-K}
  0.9,                                    ! Thermal Absorptance
  0.92,                                   ! Solar Absorptance
  0.92;                                   ! Visible Absorptance

OS:Material,
  {8da511b4-ba82-44be-b1c3-d3cf5e0a03d6}, ! Handle
  8IN Concrete HW,                        ! Name
  MediumRough,                            ! Roughness
  0.2033,                                 ! Thickness {m}
  1.7296,                                 ! Conductivity {W/m-K}
  2243,                                   ! Density {kg/m3}
  837,                                    ! Specific Heat {J/kg-K}
  0.9,                                    ! Thermal Absorptance
  0.65,                                   ! Solar Absorptance
  0.65;                                   ! Visible Absorptance

OS:Construction,
  {680ba25b-7295-4c6a-8b02-eac932ce7d50}, ! Handle
  90.1-1999 Nonres B8 Ext Wall Mass,      ! Name
  ,                                       ! Surface Rendering Name
  {75dab040-e9a6-4450-af70-9b721f5fe3b6}, ! Layer 1
  {8da511b4-ba82-44be-b1c3-d3cf5e0a03d6}, ! Layer 2
  {23bb42c1-68c6-4eb3-b59d-ab637ccf1ddb}; ! Layer 3

OS:Material,
  {75dab040-e9a6-4450-af70-9b721f5fe3b6}, ! Handle
  1IN Stucco,                             ! Name
  Smooth,                                 ! Roughness
  0.0253,                                 ! Thickness {m}
  0.6918,                                 ! Conductivity {W/m-K}
  1858,                                   ! Density {kg/m3}
  837,                                    ! Specific Heat {J/kg-K}
  0.9,                                    ! Thermal Absorptance
  0.92,                                   ! Solar Absorptance
  0.92;                                   ! Visible Absorptance

OS:ComponentCost:LineItem,
  {8570a683-c5eb-4153-bb4f-10133106a3b4}, ! Handle
  90.1-1999 Nonres B8 Ext Wall Mass,      ! Name
  ,                                       ! Type
  Construction,                           ! Line Item Type
  90.1-1999 Nonres B8 Ext Wall Mass,      ! Item Name
  ,                                       ! Object End Use Key
  ,                                       ! Quantity {dimensionless}
  41.397,                                 ! Material Cost {$}
  CostPerArea;                            ! Material Cost Units

