
OS:Version,
  {5bc167a0-1379-454b-b419-04dc4fab5469}, ! Handle
  0.9.3;                                  ! Version Identifier

OS:Material:NoMass,
  {b2ad69c9-3070-46b4-8391-1b2875f6afab}, ! Handle
  CP02 CARPET PAD,                        ! Name
  VeryRough,                              ! Roughness
  0.21648,                                ! Thermal Resistance {m2-K/W}
  0.9,                                    ! Thermal Absorptance
  0.7,                                    ! Solar Absorptance
  0.8;                                    ! Visible Absorptance

OS:Material,
  {0cf992c3-281a-4d47-9572-7bb75fc65a3c}, ! Handle
  MAT-CC05 8 HW CONCRETE,                 ! Name
  Rough,                                  ! Roughness
  0.20321,                                ! Thickness {m}
  1.311,                                  ! Conductivity {W/m-K}
  2240,                                   ! Density {kg/m3}
  836.8,                                  ! Specific Heat {J/kg-K}
  0.9,                                    ! Thermal Absorptance
  0.7,                                    ! Solar Absorptance
  0.7;                                    ! Visible Absorptance

OS:ComponentCost:LineItem,
  {7cb78330-c1a7-4907-87cd-c160d469a246}, ! Handle
  189.1-2009 Nonres 8A Ext Slab Unheated - 8in Slab with Carpet, ! Name
  ,                                       ! Type
  Construction,                           ! Line Item Type
  189.1-2009 Nonres 8A Ext Slab Unheated - 8in Slab with Carpet, ! Item Name
  ,                                       ! Object End Use Key
  ,                                       ! Quantity {dimensionless}
  45.52,                                  ! Material Cost {$}
  CostPerArea;                            ! Material Cost Units

OS:Construction,
  {bb13a5c0-2f37-4315-b96c-156f2632870b}, ! Handle
  189.1-2009 Nonres 8A Ext Slab Unheated - 8in Slab with Carpet, ! Name
  ,                                       ! Surface Rendering Name
  {0cf992c3-281a-4d47-9572-7bb75fc65a3c}, ! Layer 1
  {b2ad69c9-3070-46b4-8391-1b2875f6afab}; ! Layer 2

