
OS:Version,
  {e597c4e8-00f7-4afd-aa96-6ab3510df25a}, ! Handle
  0.9.3;                                  ! Version Identifier

OS:Material,
  {ca05d367-4ebc-4a6c-a47d-7356aa326bc2}, ! Handle
  Wall Insulation [159],                  ! Name
  MediumRough,                            ! Roughness
  0.0812,                                 ! Thickness {m}
  0.045,                                  ! Conductivity {W/m-K}
  265,                                    ! Density {kg/m3}
  836.8,                                  ! Specific Heat {J/kg-K}
  0.9,                                    ! Thermal Absorptance
  0.7,                                    ! Solar Absorptance
  0.7;                                    ! Visible Absorptance

OS:Construction,
  {931718e3-149a-4450-9c57-99a31e941313}, ! Handle
  Title 24-2008 Nonres 4 Ext Wall Steel-Framed, ! Name
  ,                                       ! Surface Rendering Name
  {e593674e-145f-49d4-ae56-26f53c1828c2}, ! Layer 1
  {ca05d367-4ebc-4a6c-a47d-7356aa326bc2}, ! Layer 2
  {25190998-a0e8-40a9-aa65-c0dd4612e56c}; ! Layer 3

OS:Material:NoMass,
  {e593674e-145f-49d4-ae56-26f53c1828c2}, ! Handle
  MAT-SHEATH,                             ! Name
  Rough,                                  ! Roughness
  0.36256,                                ! Thermal Resistance {m2-K/W}
  0.9,                                    ! Thermal Absorptance
  0.7,                                    ! Solar Absorptance
  0.7;                                    ! Visible Absorptance

OS:Material,
  {25190998-a0e8-40a9-aa65-c0dd4612e56c}, ! Handle
  1/2IN Gypsum,                           ! Name
  Smooth,                                 ! Roughness
  0.01271,                                ! Thickness {m}
  0.16,                                   ! Conductivity {W/m-K}
  784.9,                                  ! Density {kg/m3}
  830,                                    ! Specific Heat {J/kg-K}
  0.9,                                    ! Thermal Absorptance
  0.92,                                   ! Solar Absorptance
  0.92;                                   ! Visible Absorptance

OS:ComponentCost:LineItem,
  {b86488a8-0007-4c6d-b60e-b3e7e458e08b}, ! Handle
  Title 24-2008 Nonres 4 Ext Wall Steel-Framed, ! Name
  ,                                       ! Type
  Construction,                           ! Line Item Type
  Title 24-2008 Nonres 4 Ext Wall Steel-Framed, ! Item Name
  ,                                       ! Object End Use Key
  ,                                       ! Quantity {dimensionless}
  155.805,                                ! Material Cost {$}
  CostPerArea;                            ! Material Cost Units

