
OS:Version,
  {d9cda6bd-4ea0-45a4-9d2e-a23dc1e006d8}, ! Handle
  0.9.3;                                  ! Version Identifier

OS:Construction,
  {9e4148b9-bb53-423c-9d62-5a8159395640}, ! Handle
  90.1 Windows Window Fixed 3481 Brk-Clr-Ins-V88-Ins-Clr, ! Name
  ,                                       ! Surface Rendering Name
  {1a9c1b21-2b35-45db-92cc-587833506136}; ! Layer 1

OS:WindowMaterial:Glazing,
  {1a9c1b21-2b35-45db-92cc-587833506136}, ! Handle
  Theoretical Glass [298],                ! Name
  SpectralAverage,                        ! Optical Data Type
  ,                                       ! Window Glass Spectral Data Set Name
  0.003,                                  ! Thickness {m}
  0.525103,                               ! Solar Transmittance at Normal Incidence
  0.424897,                               ! Front Side Solar Reflectance at Normal Incidence
  0.424897,                               ! Back Side Solar Reflectance at Normal Incidence
  0.629707,                               ! Visible Transmittance at Normal Incidence
  0.320293,                               ! Front Side Visible Reflectance at Normal Incidence
  0.320293,                               ! Back Side Visible Reflectance at Normal Incidence
  0,                                      ! Infrared Transmittance at Normal Incidence
  0.9,                                    ! Front Side Infrared Hemispherical Emissivity
  0.9,                                    ! Back Side Infrared Hemispherical Emissivity
  0.0088199;                              ! Conductivity {W/m-K}

OS:ComponentCost:LineItem,
  {3dc61ac0-0ff4-45ae-9f6f-b0c8fd728c4b}, ! Handle
  90.1 Windows Window Fixed 3481 Brk-Clr-Ins-V88-Ins-Clr, ! Name
  ,                                       ! Type
  Construction,                           ! Line Item Type
  90.1 Windows Window Fixed 3481 Brk-Clr-Ins-V88-Ins-Clr, ! Item Name
  ,                                       ! Object End Use Key
  ,                                       ! Quantity {dimensionless}
  0,                                      ! Material Cost {$}
  CostPerArea;                            ! Material Cost Units

OS:ComponentData,
  {3ccdcf04-2e69-4b03-b1e6-71b5a08f7832}, ! Handle
  Component Data 1,                       ! Name
  {5225e4aa-7b5f-45b2-9867-a9e8eed95e8f}, ! UUID
  {9cddd746-eaf5-415a-98cd-ec04d5953bb2}, ! Version UUID
  1363981005,                             ! Creation Timestamp
  1363981005,                             ! Version Timestamp
  {9e4148b9-bb53-423c-9d62-5a8159395640}, ! Name of Object 1
  {1a9c1b21-2b35-45db-92cc-587833506136}, ! Name of Object 2
  {3dc61ac0-0ff4-45ae-9f6f-b0c8fd728c4b}; ! Name of Object 3

