
OS:Version,
  {27615c49-bbc9-4eea-92d1-9639e8549310}, ! Handle
  0.9.3;                                  ! Version Identifier

OS:ComponentCost:LineItem,
  {3879fcb6-af89-4191-a7ef-d21e7011af88}, ! Handle
  90.1 Windows Window Fixed 3481 Brk-Clr-Ins-V88-Ins-Clr, ! Name
  ,                                       ! Type
  Construction,                           ! Line Item Type
  90.1 Windows Window Fixed 3481 Brk-Clr-Ins-V88-Ins-Clr, ! Item Name
  ,                                       ! Object End Use Key
  ,                                       ! Quantity {dimensionless}
  0,                                      ! Material Cost {$}
  CostPerArea;                            ! Material Cost Units

OS:Construction,
  {fc128557-91c0-467c-8019-9fcef503978a}, ! Handle
  90.1 Windows Window Fixed 3481 Brk-Clr-Ins-V88-Ins-Clr, ! Name
  ,                                       ! Surface Rendering Name
  {45d33102-d7fa-43b8-80cf-0eed32887310}; ! Layer 1

OS:WindowMaterial:Glazing,
  {45d33102-d7fa-43b8-80cf-0eed32887310}, ! Handle
  Theoretical Glass [298],                ! Name
  SpectralAverage,                        ! Optical Data Type
  ,                                       ! Window Glass Spectral Data Set Name
  0.003,                                  ! Thickness {m}
  0.525103,                               ! Solar Transmittance at Normal Incidence
  0.424897,                               ! Front Side Solar Reflectance at Normal Incidence
  0.424897,                               ! Back Side Solar Reflectance at Normal Incidence
  0.629707,                               ! Visible Transmittance at Normal Incidence
  0.320293,                               ! Front Side Visible Reflectance at Normal Incidence
  0.320293,                               ! Back Side Visible Reflectance at Normal Incidence
  0,                                      ! Infrared Transmittance at Normal Incidence
  0.9,                                    ! Front Side Infrared Hemispherical Emissivity
  0.9,                                    ! Back Side Infrared Hemispherical Emissivity
  0.0088199;                              ! Conductivity {W/m-K}

