
OS:Version,
  {63e8cd9b-7e54-459f-82b5-ae67ffc552c2}, ! Handle
  0.9.3;                                  ! Version Identifier

OS:Construction,
  {08704850-c25b-4a7f-963d-f39694e91906}, ! Handle
  189.1-2009 Res 2A Window Metal framing curtainwall-storefront, ! Name
  ,                                       ! Surface Rendering Name
  {50ecd4c4-c88f-4003-b679-e44d087e8c71}; ! Layer 1

OS:WindowMaterial:Glazing,
  {50ecd4c4-c88f-4003-b679-e44d087e8c71}, ! Handle
  Theoretical Glass [198],                ! Name
  SpectralAverage,                        ! Optical Data Type
  ,                                       ! Window Glass Spectral Data Set Name
  0.003,                                  ! Thickness {m}
  0.234242,                               ! Solar Transmittance at Normal Incidence
  0.715758,                               ! Front Side Solar Reflectance at Normal Incidence
  0.715758,                               ! Back Side Solar Reflectance at Normal Incidence
  0.251212,                               ! Visible Transmittance at Normal Incidence
  0.698788,                               ! Front Side Visible Reflectance at Normal Incidence
  0.698788,                               ! Back Side Visible Reflectance at Normal Incidence
  0,                                      ! Infrared Transmittance at Normal Incidence
  0.9,                                    ! Front Side Infrared Hemispherical Emissivity
  0.9,                                    ! Back Side Infrared Hemispherical Emissivity
  0.0336861;                              ! Conductivity {W/m-K}

OS:ComponentCost:LineItem,
  {47603eee-390a-4173-96fe-6c5443477022}, ! Handle
  189.1-2009 Res 2A Window Metal framing curtainwall-storefront, ! Name
  ,                                       ! Type
  Construction,                           ! Line Item Type
  189.1-2009 Res 2A Window Metal framing curtainwall-storefront, ! Item Name
  ,                                       ! Object End Use Key
  ,                                       ! Quantity {dimensionless}
  600.037,                                ! Material Cost {$}
  CostPerArea;                            ! Material Cost Units

OS:ComponentData,
  {48b7edb6-985b-492c-9032-8e3c6f883cd6}, ! Handle
  Component Data 1,                       ! Name
  {fee2a912-f868-4568-91c3-c29e8f067129}, ! UUID
  {efc50b10-8b98-4766-9f6a-220289ba30c5}, ! Version UUID
  1363980965,                             ! Creation Timestamp
  1363980965,                             ! Version Timestamp
  {08704850-c25b-4a7f-963d-f39694e91906}, ! Name of Object 1
  {50ecd4c4-c88f-4003-b679-e44d087e8c71}, ! Name of Object 2
  {47603eee-390a-4173-96fe-6c5443477022}; ! Name of Object 3

