
OS:Version,
  {8ae73a04-c73f-4f4e-8b2c-2b3193a470d0}, ! Handle
  0.9.3;                                  ! Version Identifier

OS:WindowMaterial:Glazing,
  {88cbc894-8843-47a9-9ecb-e20367142263}, ! Handle
  Theoretical Glass [198],                ! Name
  SpectralAverage,                        ! Optical Data Type
  ,                                       ! Window Glass Spectral Data Set Name
  0.003,                                  ! Thickness {m}
  0.234242,                               ! Solar Transmittance at Normal Incidence
  0.715758,                               ! Front Side Solar Reflectance at Normal Incidence
  0.715758,                               ! Back Side Solar Reflectance at Normal Incidence
  0.251212,                               ! Visible Transmittance at Normal Incidence
  0.698788,                               ! Front Side Visible Reflectance at Normal Incidence
  0.698788,                               ! Back Side Visible Reflectance at Normal Incidence
  0,                                      ! Infrared Transmittance at Normal Incidence
  0.9,                                    ! Front Side Infrared Hemispherical Emissivity
  0.9,                                    ! Back Side Infrared Hemispherical Emissivity
  0.0336861;                              ! Conductivity {W/m-K}

OS:Construction,
  {3f57efe1-0cfe-4131-a3c6-0a68ad489689}, ! Handle
  189.1-2009 Res 2A Window Metal framing curtainwall-storefront, ! Name
  ,                                       ! Surface Rendering Name
  {88cbc894-8843-47a9-9ecb-e20367142263}; ! Layer 1

OS:ComponentCost:LineItem,
  {7e86e41d-8f99-4723-8cd5-99494d0df61c}, ! Handle
  189.1-2009 Res 2A Window Metal framing curtainwall-storefront, ! Name
  ,                                       ! Type
  Construction,                           ! Line Item Type
  189.1-2009 Res 2A Window Metal framing curtainwall-storefront, ! Item Name
  ,                                       ! Object End Use Key
  ,                                       ! Quantity {dimensionless}
  600.037,                                ! Material Cost {$}
  CostPerArea;                            ! Material Cost Units

