
OS:Version,
  {59deccd5-b7ed-430e-87bd-9d8984366342}, ! Handle
  0.9.3;                                  ! Version Identifier

OS:ComponentCost:LineItem,
  {ee943486-d09c-49c8-a76c-a8d3f2ca3019}, ! Handle
  90.1 Windows Window Fixed 2631 Vnl-Clr-Ins-ClrSpe, ! Name
  ,                                       ! Type
  Construction,                           ! Line Item Type
  90.1 Windows Window Fixed 2631 Vnl-Clr-Ins-ClrSpe, ! Item Name
  ,                                       ! Object End Use Key
  ,                                       ! Quantity {dimensionless}
  0,                                      ! Material Cost {$}
  CostPerArea;                            ! Material Cost Units

OS:Construction,
  {8ca51b81-7146-4d66-8597-ae0eb463d196}, ! Handle
  90.1 Windows Window Fixed 2631 Vnl-Clr-Ins-ClrSpe, ! Name
  ,                                       ! Surface Rendering Name
  {3f3d8988-d1f5-48d9-a3ac-0cf8e05833ab}; ! Layer 1

OS:WindowMaterial:Glazing,
  {3f3d8988-d1f5-48d9-a3ac-0cf8e05833ab}, ! Handle
  Theoretical Glass [304],                ! Name
  SpectralAverage,                        ! Optical Data Type
  ,                                       ! Window Glass Spectral Data Set Name
  0.003,                                  ! Thickness {m}
  0.505882,                               ! Solar Transmittance at Normal Incidence
  0.444118,                               ! Front Side Solar Reflectance at Normal Incidence
  0.444118,                               ! Back Side Solar Reflectance at Normal Incidence
  0.629707,                               ! Visible Transmittance at Normal Incidence
  0.320293,                               ! Front Side Visible Reflectance at Normal Incidence
  0.320293,                               ! Back Side Visible Reflectance at Normal Incidence
  0,                                      ! Infrared Transmittance at Normal Incidence
  0.9,                                    ! Front Side Infrared Hemispherical Emissivity
  0.9,                                    ! Back Side Infrared Hemispherical Emissivity
  0.00811056;                             ! Conductivity {W/m-K}

