
OS:Version,
  {0f97fe03-f552-4324-8629-ebbce98387db}, ! Handle
  0.9.3;                                  ! Version Identifier

OS:Construction,
  {64bf0c59-2c9f-473c-a789-ba6847abe5b8}, ! Handle
  90.1-1999 Nonres B20 Roof Attic and Other, ! Name
  ,                                       ! Surface Rendering Name
  {f334d202-1874-441e-bfd8-9ff57c6e32de}, ! Layer 1
  {18b99023-c3cd-48f5-8bf3-9815c7a2df26}, ! Layer 2
  {41fd8d89-03bd-4c6d-8a03-b42abe0d8229}, ! Layer 3
  {fb45dcd9-18eb-4394-ba12-4bfff083e312}; ! Layer 4

OS:Material,
  {f334d202-1874-441e-bfd8-9ff57c6e32de}, ! Handle
  Wood Shingles,                          ! Name
  VeryRough,                              ! Roughness
  0.0178,                                 ! Thickness {m}
  0.115,                                  ! Conductivity {W/m-K}
  513,                                    ! Density {kg/m3}
  1255,                                   ! Specific Heat {J/kg-K}
  0.9,                                    ! Thermal Absorptance
  0.78,                                   ! Solar Absorptance
  0.78;                                   ! Visible Absorptance

OS:Material,
  {18b99023-c3cd-48f5-8bf3-9815c7a2df26}, ! Handle
  1IN Wood Decking,                       ! Name
  MediumSmooth,                           ! Roughness
  0.0254,                                 ! Thickness {m}
  0.1211,                                 ! Conductivity {W/m-K}
  593,                                    ! Density {kg/m3}
  2510,                                   ! Specific Heat {J/kg-K}
  0.9,                                    ! Thermal Absorptance
  0.78,                                   ! Solar Absorptance
  0.78;                                   ! Visible Absorptance

OS:Material,
  {41fd8d89-03bd-4c6d-8a03-b42abe0d8229}, ! Handle
  Roof Insulation [2],                    ! Name
  MediumRough,                            ! Roughness
  0.221604,                               ! Thickness {m}
  0.049,                                  ! Conductivity {W/m-K}
  265,                                    ! Density {kg/m3}
  836.8,                                  ! Specific Heat {J/kg-K}
  0.9,                                    ! Thermal Absorptance
  0.7,                                    ! Solar Absorptance
  0.7;                                    ! Visible Absorptance

OS:Material,
  {fb45dcd9-18eb-4394-ba12-4bfff083e312}, ! Handle
  1/2IN Gypsum,                           ! Name
  Smooth,                                 ! Roughness
  0.01271,                                ! Thickness {m}
  0.16,                                   ! Conductivity {W/m-K}
  784.9,                                  ! Density {kg/m3}
  830,                                    ! Specific Heat {J/kg-K}
  0.9,                                    ! Thermal Absorptance
  0.92,                                   ! Solar Absorptance
  0.92;                                   ! Visible Absorptance

OS:ComponentCost:LineItem,
  {86642f0d-10cd-4f5d-8f16-e74da3720006}, ! Handle
  90.1-1999 Nonres B20 Roof Attic and Other, ! Name
  ,                                       ! Type
  Construction,                           ! Line Item Type
  90.1-1999 Nonres B20 Roof Attic and Other, ! Item Name
  ,                                       ! Object End Use Key
  ,                                       ! Quantity {dimensionless}
  33.39,                                  ! Material Cost {$}
  CostPerArea;                            ! Material Cost Units

