
OS:Version,
  {d5b22e28-a123-4a14-8979-80663e3afcd3}, ! Handle
  0.9.3;                                  ! Version Identifier

OS:Construction,
  {dad04c4e-1289-4a99-bbef-a6b41487d569}, ! Handle
  AEDG SHC Nonres 4B Skylight without Curb, ! Name
  ,                                       ! Surface Rendering Name
  {7ec8d579-8aaa-4459-8e49-d0eb2b6c54a5}; ! Layer 1

OS:WindowMaterial:Glazing,
  {7ec8d579-8aaa-4459-8e49-d0eb2b6c54a5}, ! Handle
  Theoretical Glass [241],                ! Name
  SpectralAverage,                        ! Optical Data Type
  ,                                       ! Window Glass Spectral Data Set Name
  0.003,                                  ! Thickness {m}
  0.381632,                               ! Solar Transmittance at Normal Incidence
  0.568368,                               ! Front Side Solar Reflectance at Normal Incidence
  0.568368,                               ! Back Side Solar Reflectance at Normal Incidence
  0.330719,                               ! Visible Transmittance at Normal Incidence
  0.619281,                               ! Front Side Visible Reflectance at Normal Incidence
  0.619281,                               ! Back Side Visible Reflectance at Normal Incidence
  0,                                      ! Infrared Transmittance at Normal Incidence
  0.9,                                    ! Front Side Infrared Hemispherical Emissivity
  0.9,                                    ! Back Side Infrared Hemispherical Emissivity
  0.0230964;                              ! Conductivity {W/m-K}

OS:ComponentCost:LineItem,
  {dd738ce1-d15a-47dc-930d-efb3bec173f9}, ! Handle
  AEDG SHC Nonres 4B Skylight without Curb, ! Name
  ,                                       ! Type
  Construction,                           ! Line Item Type
  AEDG SHC Nonres 4B Skylight without Curb, ! Item Name
  ,                                       ! Object End Use Key
  ,                                       ! Quantity {dimensionless}
  0,                                      ! Material Cost {$}
  CostPerArea;                            ! Material Cost Units

