
OS:Version,
  {aadd0649-7f4d-4923-a32b-e17f0222513f}, !- Handle
  1.1.0;                                  !- Version Identifier

OS:Construction,
  {b579ed15-c964-4f0c-9645-121b72d9b17a}, !- Handle
  Dbl Clr 3mm/13mm Air,                   !- Name
  ,                                       !- Surface Rendering Name
  {4464ce59-594b-4a9b-9203-0bf3fd083c0f}, !- Layer 1
  {826ff9a6-1f81-4045-9528-fb98d2a33dbc}, !- Layer 2
  {4464ce59-594b-4a9b-9203-0bf3fd083c0f}; !- Layer 3

OS:WindowMaterial:Glazing,
  {4464ce59-594b-4a9b-9203-0bf3fd083c0f}, !- Handle
  CLEAR 3MM,                              !- Name
  SpectralAverage,                        !- Optical Data Type
  ,                                       !- Window Glass Spectral Data Set Name
  0.003,                                  !- Thickness {m}
  0.837,                                  !- Solar Transmittance at Normal Incidence
  0.075,                                  !- Front Side Solar Reflectance at Normal Incidence
  0.075,                                  !- Back Side Solar Reflectance at Normal Incidence
  0.898,                                  !- Visible Transmittance at Normal Incidence
  0.081,                                  !- Front Side Visible Reflectance at Normal Incidence
  0.081,                                  !- Back Side Visible Reflectance at Normal Incidence
  0,                                      !- Infrared Transmittance at Normal Incidence
  0.84,                                   !- Front Side Infrared Hemispherical Emissivity
  0.84,                                   !- Back Side Infrared Hemispherical Emissivity
  0.9;                                    !- Conductivity {W/m-K}

OS:WindowMaterial:Gas,
  {826ff9a6-1f81-4045-9528-fb98d2a33dbc}, !- Handle
  AIR 13MM,                               !- Name
  Air,                                    !- Gas Type
  0.0127;                                 !- Thickness {m}

