
OS:Version,
  {dd80deff-1dc0-43fd-bc44-fc9cf27afaa4}, ! Handle
  0.9.3;                                  ! Version Identifier

OS:Material,
  {eb88b412-bd99-4eb9-8fa4-4f477a0a895c}, ! Handle
  MAT-CC05 8 HW CONCRETE,                 ! Name
  Rough,                                  ! Roughness
  0.20321,                                ! Thickness {m}
  1.311,                                  ! Conductivity {W/m-K}
  2240,                                   ! Density {kg/m3}
  836.8,                                  ! Specific Heat {J/kg-K}
  0.9,                                    ! Thermal Absorptance
  0.7,                                    ! Solar Absorptance
  0.7;                                    ! Visible Absorptance

OS:ComponentCost:LineItem,
  {d2b90b57-96ba-43b1-baef-3135e2b999d9}, ! Handle
  90.1-2007 Res 1A Ext Slab Unheated - 8in Slab with Carpet, ! Name
  ,                                       ! Type
  Construction,                           ! Line Item Type
  90.1-2007 Res 1A Ext Slab Unheated - 8in Slab with Carpet, ! Item Name
  ,                                       ! Object End Use Key
  ,                                       ! Quantity {dimensionless}
  45.52,                                  ! Material Cost {$}
  CostPerArea;                            ! Material Cost Units

OS:Material:NoMass,
  {adb32435-9add-441e-b288-ed583af60cc9}, ! Handle
  CP02 CARPET PAD,                        ! Name
  VeryRough,                              ! Roughness
  0.21648,                                ! Thermal Resistance {m2-K/W}
  0.9,                                    ! Thermal Absorptance
  0.7,                                    ! Solar Absorptance
  0.8;                                    ! Visible Absorptance

OS:Construction,
  {1f0234e5-1be8-48e9-82e4-3fe6e5c0378a}, ! Handle
  90.1-2007 Res 1A Ext Slab Unheated - 8in Slab with Carpet, ! Name
  ,                                       ! Surface Rendering Name
  {eb88b412-bd99-4eb9-8fa4-4f477a0a895c}, ! Layer 1
  {adb32435-9add-441e-b288-ed583af60cc9}; ! Layer 2

