
OS:Version,
  {d443c5a4-0d3d-4952-908b-287a55220de7}, ! Handle
  0.9.3;                                  ! Version Identifier

OS:Construction,
  {c857a00c-30ac-408e-bec6-405a40d3b3f8}, ! Handle
  90.1-2007 Res 1A Ext Slab Unheated - 8in Slab with Carpet, ! Name
  ,                                       ! Surface Rendering Name
  {0a2ae1d7-47ea-424d-bea9-63fad11e924a}, ! Layer 1
  {d4178490-7192-483d-9084-0427e11b7c04}; ! Layer 2

OS:Material,
  {0a2ae1d7-47ea-424d-bea9-63fad11e924a}, ! Handle
  MAT-CC05 8 HW CONCRETE,                 ! Name
  Rough,                                  ! Roughness
  0.20321,                                ! Thickness {m}
  1.311,                                  ! Conductivity {W/m-K}
  2240,                                   ! Density {kg/m3}
  836.8,                                  ! Specific Heat {J/kg-K}
  0.9,                                    ! Thermal Absorptance
  0.7,                                    ! Solar Absorptance
  0.7;                                    ! Visible Absorptance

OS:Material:NoMass,
  {d4178490-7192-483d-9084-0427e11b7c04}, ! Handle
  CP02 CARPET PAD,                        ! Name
  VeryRough,                              ! Roughness
  0.21648,                                ! Thermal Resistance {m2-K/W}
  0.9,                                    ! Thermal Absorptance
  0.7,                                    ! Solar Absorptance
  0.8;                                    ! Visible Absorptance

OS:ComponentCost:LineItem,
  {a562b1e5-8553-4df3-b013-35eb0373f06f}, ! Handle
  90.1-2007 Res 1A Ext Slab Unheated - 8in Slab with Carpet, ! Name
  ,                                       ! Type
  Construction,                           ! Line Item Type
  90.1-2007 Res 1A Ext Slab Unheated - 8in Slab with Carpet, ! Item Name
  ,                                       ! Object End Use Key
  ,                                       ! Quantity {dimensionless}
  45.52,                                  ! Material Cost {$}
  CostPerArea;                            ! Material Cost Units

OS:ComponentData,
  {b2960550-bbdb-44bc-81e1-209e0fec25af}, ! Handle
  Component Data 1,                       ! Name
  {f2afab85-8d2c-4b66-852d-ce3d74f85f6f}, ! UUID
  {cab868a6-f06d-4aeb-9ee0-418ba6fc2226}, ! Version UUID
  1363981833,                             ! Creation Timestamp
  1363981833,                             ! Version Timestamp
  {c857a00c-30ac-408e-bec6-405a40d3b3f8}, ! Name of Object 1
  {0a2ae1d7-47ea-424d-bea9-63fad11e924a}, ! Name of Object 2
  {d4178490-7192-483d-9084-0427e11b7c04}, ! Name of Object 3
  {a562b1e5-8553-4df3-b013-35eb0373f06f}; ! Name of Object 4

