
OS:Version,
  {84db6797-30af-471a-bcd3-08bb4b79cac8}, ! Handle
  0.9.3;                                  ! Version Identifier

OS:ComponentCost:LineItem,
  {330137ef-fa13-48c3-b1ab-3dd27d776464}, ! Handle
  189.1-2009 Nonres 2A Roof Attic and Other, ! Name
  ,                                       ! Type
  Construction,                           ! Line Item Type
  189.1-2009 Nonres 2A Roof Attic and Other, ! Item Name
  ,                                       ! Object End Use Key
  ,                                       ! Quantity {dimensionless}
  36.871,                                 ! Material Cost {$}
  CostPerArea;                            ! Material Cost Units

OS:Material,
  {4c220bfc-7a59-473b-b6a9-fa2b2d4890bf}, ! Handle
  1/2IN Gypsum,                           ! Name
  Smooth,                                 ! Roughness
  0.01271,                                ! Thickness {m}
  0.16,                                   ! Conductivity {W/m-K}
  784.9,                                  ! Density {kg/m3}
  830,                                    ! Specific Heat {J/kg-K}
  0.9,                                    ! Thermal Absorptance
  0.92,                                   ! Solar Absorptance
  0.92;                                   ! Visible Absorptance

OS:Material,
  {45272c96-f896-4fea-b9f0-2a8880249f85}, ! Handle
  1IN Wood Decking,                       ! Name
  MediumSmooth,                           ! Roughness
  0.0254,                                 ! Thickness {m}
  0.1211,                                 ! Conductivity {W/m-K}
  593,                                    ! Density {kg/m3}
  2510,                                   ! Specific Heat {J/kg-K}
  0.9,                                    ! Thermal Absorptance
  0.78,                                   ! Solar Absorptance
  0.78;                                   ! Visible Absorptance

OS:Material,
  {88984070-01df-4a4a-baf3-f5163f09ada2}, ! Handle
  Roof Insulation [23],                   ! Name
  MediumRough,                            ! Roughness
  0.375211,                               ! Thickness {m}
  0.049,                                  ! Conductivity {W/m-K}
  265,                                    ! Density {kg/m3}
  836.8,                                  ! Specific Heat {J/kg-K}
  0.9,                                    ! Thermal Absorptance
  0.7,                                    ! Solar Absorptance
  0.7;                                    ! Visible Absorptance

OS:Construction,
  {3e78c04d-7258-4d7d-93ed-038d353a40ca}, ! Handle
  189.1-2009 Nonres 2A Roof Attic and Other, ! Name
  ,                                       ! Surface Rendering Name
  {15e3b2ce-00a8-424b-87c8-4c61e01367bb}, ! Layer 1
  {45272c96-f896-4fea-b9f0-2a8880249f85}, ! Layer 2
  {88984070-01df-4a4a-baf3-f5163f09ada2}, ! Layer 3
  {4c220bfc-7a59-473b-b6a9-fa2b2d4890bf}; ! Layer 4

OS:Material,
  {15e3b2ce-00a8-424b-87c8-4c61e01367bb}, ! Handle
  Wood Shingles,                          ! Name
  VeryRough,                              ! Roughness
  0.0178,                                 ! Thickness {m}
  0.115,                                  ! Conductivity {W/m-K}
  513,                                    ! Density {kg/m3}
  1255,                                   ! Specific Heat {J/kg-K}
  0.9,                                    ! Thermal Absorptance
  0.78,                                   ! Solar Absorptance
  0.78;                                   ! Visible Absorptance

