
OS:Version,
  {180904df-85b7-471d-88aa-c41fdde9e60f}, ! Handle
  0.9.3;                                  ! Version Identifier

OS:Construction,
  {6c3da97e-a6eb-4b36-bacd-a2fd39caf8dc}, ! Handle
  189.1-2009 Nonres 2A Roof Attic and Other, ! Name
  ,                                       ! Surface Rendering Name
  {e236f759-cbb3-4ef8-895c-47f0ebf79192}, ! Layer 1
  {d55f9b34-11d8-4922-a91d-c60ff0196696}, ! Layer 2
  {68940d84-967d-4e8b-85cf-29c040383d2e}, ! Layer 3
  {0e1aa556-37b7-46b9-a0ce-3ae5a3ddf3c8}; ! Layer 4

OS:Material,
  {e236f759-cbb3-4ef8-895c-47f0ebf79192}, ! Handle
  Wood Shingles,                          ! Name
  VeryRough,                              ! Roughness
  0.0178,                                 ! Thickness {m}
  0.115,                                  ! Conductivity {W/m-K}
  513,                                    ! Density {kg/m3}
  1255,                                   ! Specific Heat {J/kg-K}
  0.9,                                    ! Thermal Absorptance
  0.78,                                   ! Solar Absorptance
  0.78;                                   ! Visible Absorptance

OS:Material,
  {d55f9b34-11d8-4922-a91d-c60ff0196696}, ! Handle
  1IN Wood Decking,                       ! Name
  MediumSmooth,                           ! Roughness
  0.0254,                                 ! Thickness {m}
  0.1211,                                 ! Conductivity {W/m-K}
  593,                                    ! Density {kg/m3}
  2510,                                   ! Specific Heat {J/kg-K}
  0.9,                                    ! Thermal Absorptance
  0.78,                                   ! Solar Absorptance
  0.78;                                   ! Visible Absorptance

OS:Material,
  {68940d84-967d-4e8b-85cf-29c040383d2e}, ! Handle
  Roof Insulation [23],                   ! Name
  MediumRough,                            ! Roughness
  0.375211,                               ! Thickness {m}
  0.049,                                  ! Conductivity {W/m-K}
  265,                                    ! Density {kg/m3}
  836.8,                                  ! Specific Heat {J/kg-K}
  0.9,                                    ! Thermal Absorptance
  0.7,                                    ! Solar Absorptance
  0.7;                                    ! Visible Absorptance

OS:Material,
  {0e1aa556-37b7-46b9-a0ce-3ae5a3ddf3c8}, ! Handle
  1/2IN Gypsum,                           ! Name
  Smooth,                                 ! Roughness
  0.01271,                                ! Thickness {m}
  0.16,                                   ! Conductivity {W/m-K}
  784.9,                                  ! Density {kg/m3}
  830,                                    ! Specific Heat {J/kg-K}
  0.9,                                    ! Thermal Absorptance
  0.92,                                   ! Solar Absorptance
  0.92;                                   ! Visible Absorptance

OS:ComponentCost:LineItem,
  {f858542a-6c82-4eb0-b103-0efcd6b657fe}, ! Handle
  189.1-2009 Nonres 2A Roof Attic and Other, ! Name
  ,                                       ! Type
  Construction,                           ! Line Item Type
  189.1-2009 Nonres 2A Roof Attic and Other, ! Item Name
  ,                                       ! Object End Use Key
  ,                                       ! Quantity {dimensionless}
  36.871,                                 ! Material Cost {$}
  CostPerArea;                            ! Material Cost Units

OS:ComponentData,
  {be388471-90c0-4bb5-b992-1262394df461}, ! Handle
  Component Data 1,                       ! Name
  {7706ffdb-8d0c-4b82-b4b7-69eb35627bd7}, ! UUID
  {a48745e1-140b-4802-bf1c-1e2fc29362fb}, ! Version UUID
  1363979822,                             ! Creation Timestamp
  1363979822,                             ! Version Timestamp
  {6c3da97e-a6eb-4b36-bacd-a2fd39caf8dc}, ! Name of Object 1
  {e236f759-cbb3-4ef8-895c-47f0ebf79192}, ! Name of Object 2
  {d55f9b34-11d8-4922-a91d-c60ff0196696}, ! Name of Object 3
  {68940d84-967d-4e8b-85cf-29c040383d2e}, ! Name of Object 4
  {0e1aa556-37b7-46b9-a0ce-3ae5a3ddf3c8}, ! Name of Object 5
  {f858542a-6c82-4eb0-b103-0efcd6b657fe}; ! Name of Object 6

