
OS:Version,
  {7580cac0-0fac-4fb7-b765-d65bf6d63910}, !- Handle
  1.0.6;                                  !- Version Identifier

OS:Construction,
  {fb38d98f-3025-41d2-8f93-627641241c6a}, !- Handle
  189.1-2011 NONRES 1A METAL FRAMING ALL OTHER, !- Name
  ,                                       !- Surface Rendering Name
  {07714455-e40e-4503-ad45-365fa253a64f}; !- Layer 1

OS:WindowMaterial:Glazing,
  {07714455-e40e-4503-ad45-365fa253a64f}, !- Handle
  189.1-2011 NONRES 1A METAL FRAMING ALL OTHER THEORETICAL GLAZING, !- Name
  SpectralAverage,                        !- Optical Data Type
  ,                                       !- Window Glass Spectral Data Set Name
  0.002,                                  !- Thickness {m}
  0.10958,                                !- Solar Transmittance at Normal Incidence
  0.41418,                                !- Front Side Solar Reflectance at Normal Incidence
  0.41418,                                !- Back Side Solar Reflectance at Normal Incidence
  0.10958,                                !- Visible Transmittance at Normal Incidence
  0.41418,                                !- Front Side Visible Reflectance at Normal Incidence
  0.41418,                                !- Back Side Visible Reflectance at Normal Incidence
  0,                                      !- Infrared Transmittance at Normal Incidence
  0.84,                                   !- Front Side Infrared Hemispherical Emissivity
  0.84,                                   !- Back Side Infrared Hemispherical Emissivity
  0.39122,                                !- Conductivity {W/m-K}
  1,                                      !- Dirt Correction Factor for Solar and Visible Transmittance
  No;                                     !- Solar Diffusing

OS:ComponentData,
  {dd4b1296-2fd3-450c-8abb-9a45a9cb13e6}, !- Handle
  Component Data 1,                       !- Name
  {2badef05-416c-48b5-b5fa-5ac979a6fa45}, !- UUID
  {46289ae4-d6f5-4220-885f-edbb7abc11a0}, !- Version UUID
  1380911254,                             !- Creation Timestamp
  1380911254,                             !- Version Timestamp
  {fb38d98f-3025-41d2-8f93-627641241c6a}, !- Name of Object 1
  {07714455-e40e-4503-ad45-365fa253a64f}; !- Name of Object 2

