
OS:Version,
  {74549719-1f73-4bc3-ad56-c12d185cf343}, !- Handle
  1.0.6;                                  !- Version Identifier

OS:WindowMaterial:Glazing,
  {a390d3e3-5b88-4d25-815d-6f12093f194d}, !- Handle
  189.1-2011 NONRES 1A METAL FRAMING ALL OTHER THEORETICAL GLAZING, !- Name
  SpectralAverage,                        !- Optical Data Type
  ,                                       !- Window Glass Spectral Data Set Name
  0.002,                                  !- Thickness {m}
  0.10958,                                !- Solar Transmittance at Normal Incidence
  0.41418,                                !- Front Side Solar Reflectance at Normal Incidence
  0.41418,                                !- Back Side Solar Reflectance at Normal Incidence
  0.10958,                                !- Visible Transmittance at Normal Incidence
  0.41418,                                !- Front Side Visible Reflectance at Normal Incidence
  0.41418,                                !- Back Side Visible Reflectance at Normal Incidence
  0,                                      !- Infrared Transmittance at Normal Incidence
  0.84,                                   !- Front Side Infrared Hemispherical Emissivity
  0.84,                                   !- Back Side Infrared Hemispherical Emissivity
  0.39122,                                !- Conductivity {W/m-K}
  1,                                      !- Dirt Correction Factor for Solar and Visible Transmittance
  No;                                     !- Solar Diffusing

OS:Construction,
  {2e1ba58c-c671-4fe7-bced-b604497549c1}, !- Handle
  189.1-2011 NONRES 1A METAL FRAMING ALL OTHER, !- Name
  ,                                       !- Surface Rendering Name
  {a390d3e3-5b88-4d25-815d-6f12093f194d}; !- Layer 1

