
OS:Version,
  {2f098649-fc0c-4e71-be8b-869c8e261772}, !- Handle
  1.14.0;                                 !- Version Identifier

OS:Material,
  {21726741-cb23-4660-8eb2-3cb41026da72}, ! Handle
  Plaster inside 1.5,                     ! Name
  Smooth,                                 ! Roughness
  0.015,                                  ! Thickness {m}
  0.7,                                    ! Conductivity {W/m-K}
  1100,                                   ! Density {kg/m3}
  1010,                                   ! Specific Heat {J/kg-K}
  0.3,                                    ! Thermal Absorptance
  0.3,                                    ! Solar Absorptance
  0.3;                                    ! Visible Absorptance

OS:Material,
  {9642aa4b-2fdc-4355-b542-c1ab9eeec523}, ! Handle
  Full brick 24cm,                        ! Name
  Smooth,                                 ! Roughness
  0.24,                                   ! Thickness {m}
  0.81,                                   ! Conductivity {W/m-K}
  1800,                                   ! Density {kg/m3}
  1000,                                   ! Specific Heat {J/kg-K}
  0.7,                                    ! Thermal Absorptance
  0.7,                                    ! Solar Absorptance
  0.7;                                    ! Visible Absorptance

OS:Construction,
  {be62c765-3ccf-486e-a763-c70b07ef7a89}, ! Handle
  1 UW DE Ext Wall N -1918,               ! Name
  ,                                       ! Surface Rendering Name
  {1ccdadbf-91fd-4781-96b5-b031c41192ec}, ! Layer 1
  {9642aa4b-2fdc-4355-b542-c1ab9eeec523}, ! Layer 2
  {21726741-cb23-4660-8eb2-3cb41026da72}; ! Layer 3

OS:Material,
  {1ccdadbf-91fd-4781-96b5-b031c41192ec}, ! Handle
  Plast outside 2cm,                      ! Name
  Smooth,                                 ! Roughness
  0.02,                                   ! Thickness {m}
  0.87,                                   ! Conductivity {W/m-K}
  1400,                                   ! Density {kg/m3}
  1010,                                   ! Specific Heat {J/kg-K}
  0.3,                                    ! Thermal Absorptance
  0.3,                                    ! Solar Absorptance
  0.3;                                    ! Visible Absorptance

