
OS:Version,
  {b4641d55-3c71-4ffd-b7a0-6fa76e9c6ecf}, ! Handle
  0.9.3;                                  ! Version Identifier

OS:Construction,
  {7cbf2f59-56cf-4beb-b129-cb1c2c833c7b}, ! Handle
  90.1 Windows Window Fixed 2515 Vnl-GrnMpr-Std-Clr, ! Name
  ,                                       ! Surface Rendering Name
  {2b954c03-0a5e-431f-93c5-fab295da6cdf}; ! Layer 1

OS:WindowMaterial:Glazing,
  {2b954c03-0a5e-431f-93c5-fab295da6cdf}, ! Handle
  Theoretical Glass [468],                ! Name
  SpectralAverage,                        ! Optical Data Type
  ,                                       ! Window Glass Spectral Data Set Name
  0.003,                                  ! Thickness {m}
  0.284827,                               ! Solar Transmittance at Normal Incidence
  0.665173,                               ! Front Side Solar Reflectance at Normal Incidence
  0.665173,                               ! Back Side Solar Reflectance at Normal Incidence
  0.34081,                                ! Visible Transmittance at Normal Incidence
  0.60919,                                ! Front Side Visible Reflectance at Normal Incidence
  0.60919,                                ! Back Side Visible Reflectance at Normal Incidence
  0,                                      ! Infrared Transmittance at Normal Incidence
  0.9,                                    ! Front Side Infrared Hemispherical Emissivity
  0.9,                                    ! Back Side Infrared Hemispherical Emissivity
  0.0161117;                              ! Conductivity {W/m-K}

OS:ComponentCost:LineItem,
  {5b9acfab-facb-4c3f-b11c-c4d0c4c77190}, ! Handle
  90.1 Windows Window Fixed 2515 Vnl-GrnMpr-Std-Clr, ! Name
  ,                                       ! Type
  Construction,                           ! Line Item Type
  90.1 Windows Window Fixed 2515 Vnl-GrnMpr-Std-Clr, ! Item Name
  ,                                       ! Object End Use Key
  ,                                       ! Quantity {dimensionless}
  0,                                      ! Material Cost {$}
  CostPerArea;                            ! Material Cost Units

OS:ComponentData,
  {16e0cf4c-bc42-4880-ba07-d82ecb79a45f}, ! Handle
  Component Data 1,                       ! Name
  {03fd80be-33e6-4a50-8a04-6be928f292a5}, ! UUID
  {ccdf9d4b-5e64-4782-bb36-a9254205cf30}, ! Version UUID
  1363981021,                             ! Creation Timestamp
  1363981021,                             ! Version Timestamp
  {7cbf2f59-56cf-4beb-b129-cb1c2c833c7b}, ! Name of Object 1
  {2b954c03-0a5e-431f-93c5-fab295da6cdf}, ! Name of Object 2
  {5b9acfab-facb-4c3f-b11c-c4d0c4c77190}; ! Name of Object 3

