
OS:Version,
  {266a330e-c0d0-424a-bb2d-cd962acf5eaa}, ! Handle
  0.9.3;                                  ! Version Identifier

OS:ComponentCost:LineItem,
  {70d46108-072b-42ff-9319-53462a3e0fb0}, ! Handle
  189.1-2009 Nonres 7A Window Metal framing entrance door, ! Name
  ,                                       ! Type
  Construction,                           ! Line Item Type
  189.1-2009 Nonres 7A Window Metal framing entrance door, ! Item Name
  ,                                       ! Object End Use Key
  ,                                       ! Quantity {dimensionless}
  508.362,                                ! Material Cost {$}
  CostPerArea;                            ! Material Cost Units

OS:Construction,
  {f96de828-517b-4d69-825a-c46dcfe1fb9d}, ! Handle
  189.1-2009 Nonres 7A Window Metal framing entrance door, ! Name
  ,                                       ! Surface Rendering Name
  {2759e699-e547-42af-86f0-fc5216095186}; ! Layer 1

OS:WindowMaterial:Glazing,
  {2759e699-e547-42af-86f0-fc5216095186}, ! Handle
  Theoretical Glass [220],                ! Name
  SpectralAverage,                        ! Optical Data Type
  ,                                       ! Window Glass Spectral Data Set Name
  0.003,                                  ! Thickness {m}
  0.432524,                               ! Solar Transmittance at Normal Incidence
  0.517476,                               ! Front Side Solar Reflectance at Normal Incidence
  0.517476,                               ! Back Side Solar Reflectance at Normal Incidence
  0.450308,                               ! Visible Transmittance at Normal Incidence
  0.499692,                               ! Front Side Visible Reflectance at Normal Incidence
  0.499692,                               ! Back Side Visible Reflectance at Normal Incidence
  0,                                      ! Infrared Transmittance at Normal Incidence
  0.9,                                    ! Front Side Infrared Hemispherical Emissivity
  0.9,                                    ! Back Side Infrared Hemispherical Emissivity
  0.0336861;                              ! Conductivity {W/m-K}

