
OS:Version,
  {1d8f467e-810b-436e-bda2-d6de192a3eff}, ! Handle
  0.9.3;                                  ! Version Identifier

OS:Material,
  {f751e4bc-22b5-408a-b78b-2b10a335f642}, ! Handle
  1/2IN Gypsum,                           ! Name
  Smooth,                                 ! Roughness
  0.01271,                                ! Thickness {m}
  0.16,                                   ! Conductivity {W/m-K}
  784.9,                                  ! Density {kg/m3}
  830,                                    ! Specific Heat {J/kg-K}
  0.9,                                    ! Thermal Absorptance
  0.92,                                   ! Solar Absorptance
  0.92;                                   ! Visible Absorptance

OS:Material,
  {5b7c8103-7051-44bc-bbbf-d1e9faf52d4b}, ! Handle
  Wall Insulation [39],                   ! Name
  MediumRough,                            ! Roughness
  0.118387,                               ! Thickness {m}
  0.045,                                  ! Conductivity {W/m-K}
  265,                                    ! Density {kg/m3}
  836.8,                                  ! Specific Heat {J/kg-K}
  0.9,                                    ! Thermal Absorptance
  0.7,                                    ! Solar Absorptance
  0.7;                                    ! Visible Absorptance

OS:ComponentCost:LineItem,
  {3d013aa9-43df-400a-b2e1-87c277a5c51e}, ! Handle
  189.1-2009 Res 5B Ext Wall Steel-Framed, ! Name
  ,                                       ! Type
  Construction,                           ! Line Item Type
  189.1-2009 Res 5B Ext Wall Steel-Framed, ! Item Name
  ,                                       ! Object End Use Key
  ,                                       ! Quantity {dimensionless}
  97.51,                                  ! Material Cost {$}
  CostPerArea;                            ! Material Cost Units

OS:Material:NoMass,
  {c95d8fa4-6b7e-4186-950c-c01160abc143}, ! Handle
  MAT-SHEATH,                             ! Name
  Rough,                                  ! Roughness
  0.36256,                                ! Thermal Resistance {m2-K/W}
  0.9,                                    ! Thermal Absorptance
  0.7,                                    ! Solar Absorptance
  0.7;                                    ! Visible Absorptance

OS:Construction,
  {91abc949-063a-4f70-b4a5-57ef3fe38162}, ! Handle
  189.1-2009 Res 5B Ext Wall Steel-Framed, ! Name
  ,                                       ! Surface Rendering Name
  {c95d8fa4-6b7e-4186-950c-c01160abc143}, ! Layer 1
  {5b7c8103-7051-44bc-bbbf-d1e9faf52d4b}, ! Layer 2
  {f751e4bc-22b5-408a-b78b-2b10a335f642}; ! Layer 3

