
OS:Version,
  {c5cc00b2-9ac1-4b0c-9456-cbdc2ef9bb5d}, ! Handle
  0.9.3;                                  ! Version Identifier

OS:Construction,
  {3415bb87-d123-4a0e-a782-54b0b38ed28b}, ! Handle
  90.1-2001 Nonres B15 Roof Metal Building, ! Name
  ,                                       ! Surface Rendering Name
  {67bb3224-b99b-4035-a2ec-3dc04578361a}, ! Layer 1
  {310ef15b-fdab-4525-851b-604cfe6baf7f}; ! Layer 2

OS:Material,
  {67bb3224-b99b-4035-a2ec-3dc04578361a}, ! Handle
  Metal Roofing,                          ! Name
  MediumSmooth,                           ! Roughness
  0.001524,                               ! Thickness {m}
  45.006,                                 ! Conductivity {W/m-K}
  7680,                                   ! Density {kg/m3}
  418.4,                                  ! Specific Heat {J/kg-K}
  0.9,                                    ! Thermal Absorptance
  0.7,                                    ! Solar Absorptance
  0.3;                                    ! Visible Absorptance

OS:Material,
  {310ef15b-fdab-4525-851b-604cfe6baf7f}, ! Handle
  Roof Insulation [1],                    ! Name
  MediumRough,                            ! Roughness
  0.123533,                               ! Thickness {m}
  0.049,                                  ! Conductivity {W/m-K}
  265,                                    ! Density {kg/m3}
  836.8,                                  ! Specific Heat {J/kg-K}
  0.9,                                    ! Thermal Absorptance
  0.7,                                    ! Solar Absorptance
  0.7;                                    ! Visible Absorptance

OS:ComponentCost:LineItem,
  {3d589475-caac-4d97-a503-bbb5297c1a99}, ! Handle
  90.1-2001 Nonres B15 Roof Metal Building, ! Name
  ,                                       ! Type
  Construction,                           ! Line Item Type
  90.1-2001 Nonres B15 Roof Metal Building, ! Item Name
  ,                                       ! Object End Use Key
  ,                                       ! Quantity {dimensionless}
  38.206,                                 ! Material Cost {$}
  CostPerArea;                            ! Material Cost Units

OS:ComponentData,
  {20a2adc4-d4ff-48f0-bba4-c579b7de5205}, ! Handle
  Component Data 1,                       ! Name
  {19a8bb6e-dc74-440f-83bd-3e11448f586e}, ! UUID
  {6a5e01aa-4e94-44d7-a0e6-e11e6abfcf54}, ! Version UUID
  1363981368,                             ! Creation Timestamp
  1363981368,                             ! Version Timestamp
  {3415bb87-d123-4a0e-a782-54b0b38ed28b}, ! Name of Object 1
  {67bb3224-b99b-4035-a2ec-3dc04578361a}, ! Name of Object 2
  {310ef15b-fdab-4525-851b-604cfe6baf7f}, ! Name of Object 3
  {3d589475-caac-4d97-a503-bbb5297c1a99}; ! Name of Object 4

