
OS:Version,
  {ce97c8de-80cb-4bf3-9023-8b832fce0297}, ! Handle
  0.9.3;                                  ! Version Identifier

OS:Material,
  {21400fd6-2835-485f-bf8a-df864581e2e7}, ! Handle
  Roof Insulation [1],                    ! Name
  MediumRough,                            ! Roughness
  0.123533,                               ! Thickness {m}
  0.049,                                  ! Conductivity {W/m-K}
  265,                                    ! Density {kg/m3}
  836.8,                                  ! Specific Heat {J/kg-K}
  0.9,                                    ! Thermal Absorptance
  0.7,                                    ! Solar Absorptance
  0.7;                                    ! Visible Absorptance

OS:Material,
  {9b9c84a0-6ab5-4333-ae30-b080d87a2e77}, ! Handle
  Metal Roofing,                          ! Name
  MediumSmooth,                           ! Roughness
  0.001524,                               ! Thickness {m}
  45.006,                                 ! Conductivity {W/m-K}
  7680,                                   ! Density {kg/m3}
  418.4,                                  ! Specific Heat {J/kg-K}
  0.9,                                    ! Thermal Absorptance
  0.7,                                    ! Solar Absorptance
  0.3;                                    ! Visible Absorptance

OS:Construction,
  {ce2af826-967e-4bed-8b15-96efcecb3053}, ! Handle
  90.1-2001 Nonres B15 Roof Metal Building, ! Name
  ,                                       ! Surface Rendering Name
  {9b9c84a0-6ab5-4333-ae30-b080d87a2e77}, ! Layer 1
  {21400fd6-2835-485f-bf8a-df864581e2e7}; ! Layer 2

OS:ComponentCost:LineItem,
  {f54a9cc3-8f19-4dbb-8c5d-32caa7d9a350}, ! Handle
  90.1-2001 Nonres B15 Roof Metal Building, ! Name
  ,                                       ! Type
  Construction,                           ! Line Item Type
  90.1-2001 Nonres B15 Roof Metal Building, ! Item Name
  ,                                       ! Object End Use Key
  ,                                       ! Quantity {dimensionless}
  38.206,                                 ! Material Cost {$}
  CostPerArea;                            ! Material Cost Units

