
OS:Version,
  {15ece3e0-f0bf-43eb-8ff2-41cac66d51b4}, !- Handle
  1.1.0;                                  !- Version Identifier

OS:Construction,
  {7147f01b-b7a1-4fee-ba80-602953c8e219}, !- Handle
  Sgl Ref-B-L Clr 6mm,                    !- Name
  ,                                       !- Surface Rendering Name
  {deeab2e1-5f41-4845-a0b3-6af42af937fe}; !- Layer 1

OS:WindowMaterial:Glazing,
  {deeab2e1-5f41-4845-a0b3-6af42af937fe}, !- Handle
  REF B CLEAR LO 6MM,                     !- Name
  SpectralAverage,                        !- Optical Data Type
  ,                                       !- Window Glass Spectral Data Set Name
  0.006,                                  !- Thickness {m}
  0.15,                                   !- Solar Transmittance at Normal Incidence
  0.22,                                   !- Front Side Solar Reflectance at Normal Incidence
  0.38,                                   !- Back Side Solar Reflectance at Normal Incidence
  0.2,                                    !- Visible Transmittance at Normal Incidence
  0.23,                                   !- Front Side Visible Reflectance at Normal Incidence
  0.33,                                   !- Back Side Visible Reflectance at Normal Incidence
  0,                                      !- Infrared Transmittance at Normal Incidence
  0.84,                                   !- Front Side Infrared Hemispherical Emissivity
  0.58,                                   !- Back Side Infrared Hemispherical Emissivity
  0.9;                                    !- Conductivity {W/m-K}

