
OS:Version,
  {175765d6-6a9c-4abd-974c-07a18d2b98f8}, !- Handle
  1.0.6;                                  !- Version Identifier

OS:WindowMaterial:Glazing,
  {66546d6c-f4d9-4a15-af64-64027b31acda}, !- Handle
  189.1-2011 NONRES 6B METAL FRAMING ALL OTHER THEORETICAL GLAZING, !- Name
  SpectralAverage,                        !- Optical Data Type
  ,                                       !- Window Glass Spectral Data Set Name
  0.02657,                                !- Thickness {m}
  0.31435,                                !- Solar Transmittance at Normal Incidence
  0.47142,                                !- Front Side Solar Reflectance at Normal Incidence
  0.47142,                                !- Back Side Solar Reflectance at Normal Incidence
  0.31435,                                !- Visible Transmittance at Normal Incidence
  0.47142,                                !- Front Side Visible Reflectance at Normal Incidence
  0.47142,                                !- Back Side Visible Reflectance at Normal Incidence
  0,                                      !- Infrared Transmittance at Normal Incidence
  0.84,                                   !- Front Side Infrared Hemispherical Emissivity
  0.84,                                   !- Back Side Infrared Hemispherical Emissivity
  0.1212,                                 !- Conductivity {W/m-K}
  1,                                      !- Dirt Correction Factor for Solar and Visible Transmittance
  No;                                     !- Solar Diffusing

OS:Construction,
  {acdb3850-26da-4f13-953f-9181b217087d}, !- Handle
  189.1-2011 NONRES 6B METAL FRAMING ALL OTHER, !- Name
  ,                                       !- Surface Rendering Name
  {66546d6c-f4d9-4a15-af64-64027b31acda}; !- Layer 1

