
OS:Version,
  {d3d915e6-1a9e-467b-b064-20d78e88f472}, ! Handle
  0.9.3;                                  ! Version Identifier

OS:Construction,
  {e74ead46-67ec-4bf3-8e6e-d480dbe35f24}, ! Handle
  Title 24-2008 Nonres 9 Ext Slab Unheated - 4in Slab without Carpet, ! Name
  ,                                       ! Surface Rendering Name
  {09f54ef3-b15b-4ed1-882d-167dade2f35a}; ! Layer 1

OS:Material,
  {09f54ef3-b15b-4ed1-882d-167dade2f35a}, ! Handle
  MAT-CC05 4 HW CONCRETE,                 ! Name
  Rough,                                  ! Roughness
  0.1016,                                 ! Thickness {m}
  1.311,                                  ! Conductivity {W/m-K}
  2240,                                   ! Density {kg/m3}
  836.8,                                  ! Specific Heat {J/kg-K}
  0.9,                                    ! Thermal Absorptance
  0.7,                                    ! Solar Absorptance
  0.7;                                    ! Visible Absorptance

OS:ComponentCost:LineItem,
  {059c55c3-7293-4566-aebc-e972a12ab5b6}, ! Handle
  Title 24-2008 Nonres 9 Ext Slab Unheated - 4in Slab without Carpet, ! Name
  ,                                       ! Type
  Construction,                           ! Line Item Type
  Title 24-2008 Nonres 9 Ext Slab Unheated - 4in Slab without Carpet, ! Item Name
  ,                                       ! Object End Use Key
  ,                                       ! Quantity {dimensionless}
  45.52,                                  ! Material Cost {$}
  CostPerArea;                            ! Material Cost Units

