
OS:Version,
  {ccf2e784-65a8-4291-b885-f3756d9e57d6}, ! Handle
  0.9.3;                                  ! Version Identifier

OS:Construction,
  {a1c40257-d1d9-42a5-9867-cd19c7b5ab9c}, ! Handle
  90.1 Windows Window Fixed 2136 Mtl-HptMpr-Std-ClrSpe, ! Name
  ,                                       ! Surface Rendering Name
  {9cc5a9e5-5c52-46fb-8465-3b45236d5cc8}; ! Layer 1

OS:WindowMaterial:Glazing,
  {9cc5a9e5-5c52-46fb-8465-3b45236d5cc8}, ! Handle
  Theoretical Glass [490],                ! Name
  SpectralAverage,                        ! Optical Data Type
  ,                                       ! Window Glass Spectral Data Set Name
  0.003,                                  ! Thickness {m}
  0.25343,                                ! Solar Transmittance at Normal Incidence
  0.69657,                                ! Front Side Solar Reflectance at Normal Incidence
  0.69657,                                ! Back Side Solar Reflectance at Normal Incidence
  0.320998,                               ! Visible Transmittance at Normal Incidence
  0.629002,                               ! Front Side Visible Reflectance at Normal Incidence
  0.629002,                               ! Back Side Visible Reflectance at Normal Incidence
  0,                                      ! Infrared Transmittance at Normal Incidence
  0.9,                                    ! Front Side Infrared Hemispherical Emissivity
  0.9,                                    ! Back Side Infrared Hemispherical Emissivity
  0.0213046;                              ! Conductivity {W/m-K}

OS:ComponentCost:LineItem,
  {90e3e662-8ee7-447f-baee-461533794cb8}, ! Handle
  90.1 Windows Window Fixed 2136 Mtl-HptMpr-Std-ClrSpe, ! Name
  ,                                       ! Type
  Construction,                           ! Line Item Type
  90.1 Windows Window Fixed 2136 Mtl-HptMpr-Std-ClrSpe, ! Item Name
  ,                                       ! Object End Use Key
  ,                                       ! Quantity {dimensionless}
  0,                                      ! Material Cost {$}
  CostPerArea;                            ! Material Cost Units

