
OS:Version,
  {e977146b-857c-4bf4-af60-5709618027e2}, ! Handle
  0.9.3;                                  ! Version Identifier

OS:Construction,
  {5cdd34d0-96c0-45cd-b285-b177ba3e00c5}, ! Handle
  90.1 Windows Window Fixed 2136 Mtl-HptMpr-Std-ClrSpe, ! Name
  ,                                       ! Surface Rendering Name
  {09c2b8fd-f30a-4644-9b56-b76807256f88}; ! Layer 1

OS:WindowMaterial:Glazing,
  {09c2b8fd-f30a-4644-9b56-b76807256f88}, ! Handle
  Theoretical Glass [490],                ! Name
  SpectralAverage,                        ! Optical Data Type
  ,                                       ! Window Glass Spectral Data Set Name
  0.003,                                  ! Thickness {m}
  0.25343,                                ! Solar Transmittance at Normal Incidence
  0.69657,                                ! Front Side Solar Reflectance at Normal Incidence
  0.69657,                                ! Back Side Solar Reflectance at Normal Incidence
  0.320998,                               ! Visible Transmittance at Normal Incidence
  0.629002,                               ! Front Side Visible Reflectance at Normal Incidence
  0.629002,                               ! Back Side Visible Reflectance at Normal Incidence
  0,                                      ! Infrared Transmittance at Normal Incidence
  0.9,                                    ! Front Side Infrared Hemispherical Emissivity
  0.9,                                    ! Back Side Infrared Hemispherical Emissivity
  0.0213046;                              ! Conductivity {W/m-K}

OS:ComponentCost:LineItem,
  {0d81db14-d0c1-455a-b044-6633bff0f618}, ! Handle
  90.1 Windows Window Fixed 2136 Mtl-HptMpr-Std-ClrSpe, ! Name
  ,                                       ! Type
  Construction,                           ! Line Item Type
  90.1 Windows Window Fixed 2136 Mtl-HptMpr-Std-ClrSpe, ! Item Name
  ,                                       ! Object End Use Key
  ,                                       ! Quantity {dimensionless}
  0,                                      ! Material Cost {$}
  CostPerArea;                            ! Material Cost Units

OS:ComponentData,
  {26040a99-25a6-490d-b04e-c967a6612532}, ! Handle
  Component Data 1,                       ! Name
  {26426140-69eb-4989-b06e-fab2c4ea1699}, ! UUID
  {4e38ae1c-11ba-4690-84c1-a5713df6ecbd}, ! Version UUID
  1363981023,                             ! Creation Timestamp
  1363981023,                             ! Version Timestamp
  {5cdd34d0-96c0-45cd-b285-b177ba3e00c5}, ! Name of Object 1
  {09c2b8fd-f30a-4644-9b56-b76807256f88}, ! Name of Object 2
  {0d81db14-d0c1-455a-b044-6633bff0f618}; ! Name of Object 3

