
OS:Version,
  {2570b5ec-d22f-4bed-8020-5ca87543addc}, ! Handle
  0.9.3;                                  ! Version Identifier

OS:Construction,
  {92220355-f5f0-4c31-be9d-97f345b2d9e2}, ! Handle
  90.1 Windows Window Fixed 2441 Brk-Clr-Ins-ClrSue, ! Name
  ,                                       ! Surface Rendering Name
  {9cd3f6bf-0d56-4cfb-b4ad-1d693eb51001}; ! Layer 1

OS:WindowMaterial:Glazing,
  {9cd3f6bf-0d56-4cfb-b4ad-1d693eb51001}, ! Handle
  Theoretical Glass [324],                ! Name
  SpectralAverage,                        ! Optical Data Type
  ,                                       ! Window Glass Spectral Data Set Name
  0.003,                                  ! Thickness {m}
  0.454257,                               ! Solar Transmittance at Normal Incidence
  0.495743,                               ! Front Side Solar Reflectance at Normal Incidence
  0.495743,                               ! Back Side Solar Reflectance at Normal Incidence
  0.619384,                               ! Visible Transmittance at Normal Incidence
  0.330616,                               ! Front Side Visible Reflectance at Normal Incidence
  0.330616,                               ! Back Side Visible Reflectance at Normal Incidence
  0,                                      ! Infrared Transmittance at Normal Incidence
  0.9,                                    ! Front Side Infrared Hemispherical Emissivity
  0.9,                                    ! Back Side Infrared Hemispherical Emissivity
  0.0116215;                              ! Conductivity {W/m-K}

OS:ComponentCost:LineItem,
  {850c92bb-6632-4d61-924c-34040d5564a3}, ! Handle
  90.1 Windows Window Fixed 2441 Brk-Clr-Ins-ClrSue, ! Name
  ,                                       ! Type
  Construction,                           ! Line Item Type
  90.1 Windows Window Fixed 2441 Brk-Clr-Ins-ClrSue, ! Item Name
  ,                                       ! Object End Use Key
  ,                                       ! Quantity {dimensionless}
  0,                                      ! Material Cost {$}
  CostPerArea;                            ! Material Cost Units

