
OS:Version,
  {cb3fa999-c704-4ca4-9de7-5f09905fbdc0}, ! Handle
  0.9.3;                                  ! Version Identifier

OS:Construction,
  {8c26c5b0-1b08-47f1-9b11-892ce3cacb2e}, ! Handle
  90.1 Windows Window Fixed 2441 Brk-Clr-Ins-ClrSue, ! Name
  ,                                       ! Surface Rendering Name
  {c48dd734-6fd6-4dee-9297-665df0fb7ad2}; ! Layer 1

OS:WindowMaterial:Glazing,
  {c48dd734-6fd6-4dee-9297-665df0fb7ad2}, ! Handle
  Theoretical Glass [324],                ! Name
  SpectralAverage,                        ! Optical Data Type
  ,                                       ! Window Glass Spectral Data Set Name
  0.003,                                  ! Thickness {m}
  0.454257,                               ! Solar Transmittance at Normal Incidence
  0.495743,                               ! Front Side Solar Reflectance at Normal Incidence
  0.495743,                               ! Back Side Solar Reflectance at Normal Incidence
  0.619384,                               ! Visible Transmittance at Normal Incidence
  0.330616,                               ! Front Side Visible Reflectance at Normal Incidence
  0.330616,                               ! Back Side Visible Reflectance at Normal Incidence
  0,                                      ! Infrared Transmittance at Normal Incidence
  0.9,                                    ! Front Side Infrared Hemispherical Emissivity
  0.9,                                    ! Back Side Infrared Hemispherical Emissivity
  0.0116215;                              ! Conductivity {W/m-K}

OS:ComponentCost:LineItem,
  {8a386365-09a3-4ba6-999c-744de958092a}, ! Handle
  90.1 Windows Window Fixed 2441 Brk-Clr-Ins-ClrSue, ! Name
  ,                                       ! Type
  Construction,                           ! Line Item Type
  90.1 Windows Window Fixed 2441 Brk-Clr-Ins-ClrSue, ! Item Name
  ,                                       ! Object End Use Key
  ,                                       ! Quantity {dimensionless}
  0,                                      ! Material Cost {$}
  CostPerArea;                            ! Material Cost Units

OS:ComponentData,
  {35474841-3e04-4a0d-9513-11be82ab8e2e}, ! Handle
  Component Data 1,                       ! Name
  {29bc6017-ea24-4f2d-b8d2-df7631784b4d}, ! UUID
  {cf129d19-b2e1-46dd-9379-d78b0ef25f14}, ! Version UUID
  1363981007,                             ! Creation Timestamp
  1363981007,                             ! Version Timestamp
  {8c26c5b0-1b08-47f1-9b11-892ce3cacb2e}, ! Name of Object 1
  {c48dd734-6fd6-4dee-9297-665df0fb7ad2}, ! Name of Object 2
  {8a386365-09a3-4ba6-999c-744de958092a}; ! Name of Object 3

