
OS:Version,
  {a6dd8e9f-4df4-4a9a-a8fa-028447a35f7e}, ! Handle
  0.9.3;                                  ! Version Identifier

OS:ComponentCost:LineItem,
  {b3b6febd-3b54-4432-bf46-295367d92f5a}, ! Handle
  189.1-2009 Nonres 2A Ext Wall Steel-Framed, ! Name
  ,                                       ! Type
  Construction,                           ! Line Item Type
  189.1-2009 Nonres 2A Ext Wall Steel-Framed, ! Item Name
  ,                                       ! Object End Use Key
  ,                                       ! Quantity {dimensionless}
  92.941,                                 ! Material Cost {$}
  CostPerArea;                            ! Material Cost Units

OS:Material:NoMass,
  {9520f602-ec9d-4530-a688-3b97c712715a}, ! Handle
  MAT-SHEATH,                             ! Name
  Rough,                                  ! Roughness
  0.36256,                                ! Thermal Resistance {m2-K/W}
  0.9,                                    ! Thermal Absorptance
  0.7,                                    ! Solar Absorptance
  0.7;                                    ! Visible Absorptance

OS:Construction,
  {14e47ed7-b48a-454e-826a-def24f0df256}, ! Handle
  189.1-2009 Nonres 2A Ext Wall Steel-Framed, ! Name
  ,                                       ! Surface Rendering Name
  {9520f602-ec9d-4530-a688-3b97c712715a}, ! Layer 1
  {e4239e03-1e68-49ad-ac59-789f44f19e7f}, ! Layer 2
  {fc9e63ac-df99-4558-b71e-e0063c356180}; ! Layer 3

OS:Material,
  {e4239e03-1e68-49ad-ac59-789f44f19e7f}, ! Handle
  Wall Insulation [33],                   ! Name
  MediumRough,                            ! Roughness
  0.078148,                               ! Thickness {m}
  0.045,                                  ! Conductivity {W/m-K}
  265,                                    ! Density {kg/m3}
  836.8,                                  ! Specific Heat {J/kg-K}
  0.9,                                    ! Thermal Absorptance
  0.7,                                    ! Solar Absorptance
  0.7;                                    ! Visible Absorptance

OS:Material,
  {fc9e63ac-df99-4558-b71e-e0063c356180}, ! Handle
  1/2IN Gypsum,                           ! Name
  Smooth,                                 ! Roughness
  0.01271,                                ! Thickness {m}
  0.16,                                   ! Conductivity {W/m-K}
  784.9,                                  ! Density {kg/m3}
  830,                                    ! Specific Heat {J/kg-K}
  0.9,                                    ! Thermal Absorptance
  0.92,                                   ! Solar Absorptance
  0.92;                                   ! Visible Absorptance

