
OS:Version,
  {f4fcbdee-0851-4495-80cc-f9c46c3f58bc}, ! Handle
  0.9.3;                                  ! Version Identifier

OS:WindowMaterial:Glazing,
  {e85812c7-a789-4b09-b3c2-56432c582e8d}, ! Handle
  Theoretical Glass [175],                ! Name
  SpectralAverage,                        ! Optical Data Type
  ,                                       ! Window Glass Spectral Data Set Name
  0.003,                                  ! Thickness {m}
  0.243375,                               ! Solar Transmittance at Normal Incidence
  0.706625,                               ! Front Side Solar Reflectance at Normal Incidence
  0.706625,                               ! Back Side Solar Reflectance at Normal Incidence
  0.319199,                               ! Visible Transmittance at Normal Incidence
  0.630801,                               ! Front Side Visible Reflectance at Normal Incidence
  0.630801,                               ! Back Side Visible Reflectance at Normal Incidence
  0,                                      ! Infrared Transmittance at Normal Incidence
  0.9,                                    ! Front Side Infrared Hemispherical Emissivity
  0.9,                                    ! Back Side Infrared Hemispherical Emissivity
  0.0220611;                              ! Conductivity {W/m-K}

OS:Construction,
  {8131805c-5834-4cd5-acfc-3689e59751dc}, ! Handle
  90.1-2007 Nonres 3A Window Metal framing curtainwall-storefront, ! Name
  ,                                       ! Surface Rendering Name
  {e85812c7-a789-4b09-b3c2-56432c582e8d}; ! Layer 1

OS:ComponentCost:LineItem,
  {13c5e737-0dc6-4af0-b5c8-58f9a18325a6}, ! Handle
  90.1-2007 Nonres 3A Window Metal framing curtainwall-storefront, ! Name
  ,                                       ! Type
  Construction,                           ! Line Item Type
  90.1-2007 Nonres 3A Window Metal framing curtainwall-storefront, ! Item Name
  ,                                       ! Object End Use Key
  ,                                       ! Quantity {dimensionless}
  563.991,                                ! Material Cost {$}
  CostPerArea;                            ! Material Cost Units

