
OS:Version,
  {c81b852e-724a-4728-8cfd-83e94166464b}, ! Handle
  0.9.3;                                  ! Version Identifier

OS:Material,
  {95f82282-7482-44bd-aac0-ec0dbc539b78}, ! Handle
  Roof Insulation,                        ! Name
  MediumRough,                            ! Roughness
  0.124958,                               ! Thickness {m}
  0.049,                                  ! Conductivity {W/m-K}
  265,                                    ! Density {kg/m3}
  836.8,                                  ! Specific Heat {J/kg-K}
  0.9,                                    ! Thermal Absorptance
  0.7,                                    ! Solar Absorptance
  0.7;                                    ! Visible Absorptance

OS:Material,
  {1fb2334e-9f0e-48b2-b72c-05b04583d12c}, ! Handle
  Metal Decking,                          ! Name
  MediumSmooth,                           ! Roughness
  0.001524,                               ! Thickness {m}
  45.006,                                 ! Conductivity {W/m-K}
  7680,                                   ! Density {kg/m3}
  418.4,                                  ! Specific Heat {J/kg-K}
  0.9,                                    ! Thermal Absorptance
  0.7,                                    ! Solar Absorptance
  0.3;                                    ! Visible Absorptance

OS:Material,
  {02792b95-abca-4a8e-9000-b823a231561d}, ! Handle
  Roof Membrane,                          ! Name
  VeryRough,                              ! Roughness
  0.0095,                                 ! Thickness {m}
  0.16,                                   ! Conductivity {W/m-K}
  1121.29,                                ! Density {kg/m3}
  1460,                                   ! Specific Heat {J/kg-K}
  0.9,                                    ! Thermal Absorptance
  0.7,                                    ! Solar Absorptance
  0.7;                                    ! Visible Absorptance

OS:Construction,
  {2c86c5a6-7d77-450a-9510-26c673d50d04}, ! Handle
  90.1-1999 Nonres B22 Roof IEAD,         ! Name
  ,                                       ! Surface Rendering Name
  {02792b95-abca-4a8e-9000-b823a231561d}, ! Layer 1
  {95f82282-7482-44bd-aac0-ec0dbc539b78}, ! Layer 2
  {1fb2334e-9f0e-48b2-b72c-05b04583d12c}; ! Layer 3

OS:ComponentCost:LineItem,
  {5a0da1da-180c-4bdd-bcec-c4c2fe392834}, ! Handle
  90.1-1999 Nonres B22 Roof IEAD,         ! Name
  ,                                       ! Type
  Construction,                           ! Line Item Type
  90.1-1999 Nonres B22 Roof IEAD,         ! Item Name
  ,                                       ! Object End Use Key
  ,                                       ! Quantity {dimensionless}
  49.208,                                 ! Material Cost {$}
  CostPerArea;                            ! Material Cost Units

