
OS:Version,
  {3148e3f9-ce39-4585-bec3-dbf4033bbff7}, ! Handle
  0.9.3;                                  ! Version Identifier

OS:WindowMaterial:Glazing,
  {f485cf51-8074-4a47-8bd9-265d3e14e153}, ! Handle
  Theoretical Glass [220],                ! Name
  SpectralAverage,                        ! Optical Data Type
  ,                                       ! Window Glass Spectral Data Set Name
  0.003,                                  ! Thickness {m}
  0.432524,                               ! Solar Transmittance at Normal Incidence
  0.517476,                               ! Front Side Solar Reflectance at Normal Incidence
  0.517476,                               ! Back Side Solar Reflectance at Normal Incidence
  0.450308,                               ! Visible Transmittance at Normal Incidence
  0.499692,                               ! Front Side Visible Reflectance at Normal Incidence
  0.499692,                               ! Back Side Visible Reflectance at Normal Incidence
  0,                                      ! Infrared Transmittance at Normal Incidence
  0.9,                                    ! Front Side Infrared Hemispherical Emissivity
  0.9,                                    ! Back Side Infrared Hemispherical Emissivity
  0.0336861;                              ! Conductivity {W/m-K}

OS:ComponentCost:LineItem,
  {82ff3c02-bc63-43ba-8311-28bd1dfbdece}, ! Handle
  189.1-2009 Res 7A Window Metal framing entrance door, ! Name
  ,                                       ! Type
  Construction,                           ! Line Item Type
  189.1-2009 Res 7A Window Metal framing entrance door, ! Item Name
  ,                                       ! Object End Use Key
  ,                                       ! Quantity {dimensionless}
  508.362,                                ! Material Cost {$}
  CostPerArea;                            ! Material Cost Units

OS:Construction,
  {acdaec6d-a6b5-44d9-b194-cd4c35579f4a}, ! Handle
  189.1-2009 Res 7A Window Metal framing entrance door, ! Name
  ,                                       ! Surface Rendering Name
  {f485cf51-8074-4a47-8bd9-265d3e14e153}; ! Layer 1

