
OS:Version,
  {f5706f19-ba25-45c5-9e60-edf04db151ab}, ! Handle
  0.9.3;                                  ! Version Identifier

OS:ComponentCost:LineItem,
  {c45380e3-4e14-4934-97c5-55f149c1099e}, ! Handle
  Title 24-2008 Nonres 1 Int Wall,        ! Name
  ,                                       ! Type
  Construction,                           ! Line Item Type
  Title 24-2008 Nonres 1 Int Wall,        ! Item Name
  ,                                       ! Object End Use Key
  ,                                       ! Quantity {dimensionless}
  0,                                      ! Material Cost {$}
  CostPerArea;                            ! Material Cost Units

OS:Construction,
  {01292e21-5983-43b5-a454-c731d7570ca0}, ! Handle
  Title 24-2008 Nonres 1 Int Wall,        ! Name
  ,                                       ! Surface Rendering Name
  {e44347f8-ae90-47f1-a4fa-0b57524e7ce6}, ! Layer 1
  {e44347f8-ae90-47f1-a4fa-0b57524e7ce6}; ! Layer 2

OS:Material,
  {e44347f8-ae90-47f1-a4fa-0b57524e7ce6}, ! Handle
  GP01 1/2 GYPSUM,                        ! Name
  Smooth,                                 ! Roughness
  0.01271,                                ! Thickness {m}
  0.16,                                   ! Conductivity {W/m-K}
  800,                                    ! Density {kg/m3}
  1090,                                   ! Specific Heat {J/kg-K}
  0.9,                                    ! Thermal Absorptance
  0.7,                                    ! Solar Absorptance
  0.5;                                    ! Visible Absorptance

OS:Material,
  {74fcf5e2-ec77-4d4a-8fe7-7ea294eeea22}, ! Handle
  GP01 1/2 GYPSUM 1,                      ! Name
  Smooth,                                 ! Roughness
  0.01271,                                ! Thickness {m}
  0.16,                                   ! Conductivity {W/m-K}
  800,                                    ! Density {kg/m3}
  1090,                                   ! Specific Heat {J/kg-K}
  0.9,                                    ! Thermal Absorptance
  0.7,                                    ! Solar Absorptance
  0.5;                                    ! Visible Absorptance

