
OS:Version,
  {535f3ab5-a180-4863-80c0-3a0cc1e6ebcf}, ! Handle
  0.9.3;                                  ! Version Identifier

OS:Construction,
  {fc382113-9c73-45f1-8a0f-b9d7c5f8bc3f}, ! Handle
  Title 24-2008 Nonres 1 Int Wall,        ! Name
  ,                                       ! Surface Rendering Name
  {1eca25f3-b4c4-4140-af2a-831c8837403c}, ! Layer 1
  {1eca25f3-b4c4-4140-af2a-831c8837403c}; ! Layer 2

OS:Material,
  {1eca25f3-b4c4-4140-af2a-831c8837403c}, ! Handle
  GP01 1/2 GYPSUM,                        ! Name
  Smooth,                                 ! Roughness
  0.01271,                                ! Thickness {m}
  0.16,                                   ! Conductivity {W/m-K}
  800,                                    ! Density {kg/m3}
  1090,                                   ! Specific Heat {J/kg-K}
  0.9,                                    ! Thermal Absorptance
  0.7,                                    ! Solar Absorptance
  0.5;                                    ! Visible Absorptance

OS:ComponentCost:LineItem,
  {bcd63d9c-1222-4f27-895b-938ec1a97d52}, ! Handle
  Title 24-2008 Nonres 1 Int Wall,        ! Name
  ,                                       ! Type
  Construction,                           ! Line Item Type
  Title 24-2008 Nonres 1 Int Wall,        ! Item Name
  ,                                       ! Object End Use Key
  ,                                       ! Quantity {dimensionless}
  0,                                      ! Material Cost {$}
  CostPerArea;                            ! Material Cost Units

OS:ComponentData,
  {5a12a688-4fac-46b3-a02c-37f972b8ba4b}, ! Handle
  Component Data 1,                       ! Name
  {00d80918-4daf-4bc9-a87c-19c8ff3c2620}, ! UUID
  {61564b64-ebf8-453c-8451-08f6be48fa82}, ! Version UUID
  1363981979,                             ! Creation Timestamp
  1363981979,                             ! Version Timestamp
  {fc382113-9c73-45f1-8a0f-b9d7c5f8bc3f}, ! Name of Object 1
  {1eca25f3-b4c4-4140-af2a-831c8837403c}, ! Name of Object 2
  {bcd63d9c-1222-4f27-895b-938ec1a97d52}; ! Name of Object 3

