
OS:Version,
  {06b6f68b-a6f5-42c5-b788-fde3dcf3d699}, ! Handle
  0.9.3;                                  ! Version Identifier

OS:Construction,
  {c3970ff8-660c-4b17-8768-7ca16e335493}, ! Handle
  90.1-2001 Res B17 Skylight without Curb, ! Name
  ,                                       ! Surface Rendering Name
  {0bee3ece-cc54-4173-adb8-051d8cf49bb0}; ! Layer 1

OS:WindowMaterial:Glazing,
  {0bee3ece-cc54-4173-adb8-051d8cf49bb0}, ! Handle
  Theoretical Glass [96],                 ! Name
  SpectralAverage,                        ! Optical Data Type
  ,                                       ! Window Glass Spectral Data Set Name
  0.003,                                  ! Thickness {m}
  0.472234,                               ! Solar Transmittance at Normal Incidence
  0.477766,                               ! Front Side Solar Reflectance at Normal Incidence
  0.477766,                               ! Back Side Solar Reflectance at Normal Incidence
  0.529698,                               ! Visible Transmittance at Normal Incidence
  0.420302,                               ! Front Side Visible Reflectance at Normal Incidence
  0.420302,                               ! Back Side Visible Reflectance at Normal Incidence
  0,                                      ! Infrared Transmittance at Normal Incidence
  0.9,                                    ! Front Side Infrared Hemispherical Emissivity
  0.9,                                    ! Back Side Infrared Hemispherical Emissivity
  0.0324872;                              ! Conductivity {W/m-K}

OS:ComponentCost:LineItem,
  {5115103c-8003-48a9-a77a-e0e4b825dee0}, ! Handle
  90.1-2001 Res B17 Skylight without Curb, ! Name
  ,                                       ! Type
  Construction,                           ! Line Item Type
  90.1-2001 Res B17 Skylight without Curb, ! Item Name
  ,                                       ! Object End Use Key
  ,                                       ! Quantity {dimensionless}
  514.818,                                ! Material Cost {$}
  CostPerArea;                            ! Material Cost Units

OS:ComponentData,
  {f19f6796-6a9f-4731-9ff5-539782e5d712}, ! Handle
  Component Data 1,                       ! Name
  {6c0d31ca-8642-44cd-85cc-281de1b8e4d3}, ! UUID
  {96505cd3-3918-4636-ae37-fdd57ecf9e0b}, ! Version UUID
  1363981556,                             ! Creation Timestamp
  1363981556,                             ! Version Timestamp
  {c3970ff8-660c-4b17-8768-7ca16e335493}, ! Name of Object 1
  {0bee3ece-cc54-4173-adb8-051d8cf49bb0}, ! Name of Object 2
  {5115103c-8003-48a9-a77a-e0e4b825dee0}; ! Name of Object 3

