
OS:Version,
  {12fb6c1e-7fde-4a5e-8c05-b1720a5546cf}, ! Handle
  0.9.3;                                  ! Version Identifier

OS:WindowMaterial:Glazing,
  {0f27df3a-f7e7-46bf-b8ca-38846c41ae4f}, ! Handle
  Theoretical Glass [96],                 ! Name
  SpectralAverage,                        ! Optical Data Type
  ,                                       ! Window Glass Spectral Data Set Name
  0.003,                                  ! Thickness {m}
  0.472234,                               ! Solar Transmittance at Normal Incidence
  0.477766,                               ! Front Side Solar Reflectance at Normal Incidence
  0.477766,                               ! Back Side Solar Reflectance at Normal Incidence
  0.529698,                               ! Visible Transmittance at Normal Incidence
  0.420302,                               ! Front Side Visible Reflectance at Normal Incidence
  0.420302,                               ! Back Side Visible Reflectance at Normal Incidence
  0,                                      ! Infrared Transmittance at Normal Incidence
  0.9,                                    ! Front Side Infrared Hemispherical Emissivity
  0.9,                                    ! Back Side Infrared Hemispherical Emissivity
  0.0324872;                              ! Conductivity {W/m-K}

OS:ComponentCost:LineItem,
  {b4fd389e-e1f6-4d97-9a9d-ce5554f2a1cc}, ! Handle
  90.1-2001 Res B17 Skylight without Curb, ! Name
  ,                                       ! Type
  Construction,                           ! Line Item Type
  90.1-2001 Res B17 Skylight without Curb, ! Item Name
  ,                                       ! Object End Use Key
  ,                                       ! Quantity {dimensionless}
  514.818,                                ! Material Cost {$}
  CostPerArea;                            ! Material Cost Units

OS:Construction,
  {34c6120c-4003-4d32-930b-da0ce064a17c}, ! Handle
  90.1-2001 Res B17 Skylight without Curb, ! Name
  ,                                       ! Surface Rendering Name
  {0f27df3a-f7e7-46bf-b8ca-38846c41ae4f}; ! Layer 1

