
OS:Version,
  {b137f746-0c90-4d5e-a6ea-7a13f94dc258}, ! Handle
  0.9.3;                                  ! Version Identifier

OS:Construction,
  {1ad9e5d8-bb43-4803-b3ae-40ebeb2c9e81}, ! Handle
  90.1-2001 Res B18 Ext Slab Unheated - 4in Slab without Carpet, ! Name
  ,                                       ! Surface Rendering Name
  {41a3f5bd-f519-4c62-a87b-0fcd4e2b9cf8}; ! Layer 1

OS:Material,
  {41a3f5bd-f519-4c62-a87b-0fcd4e2b9cf8}, ! Handle
  MAT-CC05 4 HW CONCRETE,                 ! Name
  Rough,                                  ! Roughness
  0.1016,                                 ! Thickness {m}
  1.311,                                  ! Conductivity {W/m-K}
  2240,                                   ! Density {kg/m3}
  836.8,                                  ! Specific Heat {J/kg-K}
  0.9,                                    ! Thermal Absorptance
  0.7,                                    ! Solar Absorptance
  0.7;                                    ! Visible Absorptance

OS:ComponentCost:LineItem,
  {8e0c6572-98ea-4422-bab5-eb1b26c2c22a}, ! Handle
  90.1-2001 Res B18 Ext Slab Unheated - 4in Slab without Carpet, ! Name
  ,                                       ! Type
  Construction,                           ! Line Item Type
  90.1-2001 Res B18 Ext Slab Unheated - 4in Slab without Carpet, ! Item Name
  ,                                       ! Object End Use Key
  ,                                       ! Quantity {dimensionless}
  45.52,                                  ! Material Cost {$}
  CostPerArea;                            ! Material Cost Units

OS:ComponentData,
  {22c196a1-650f-426d-8ccf-6bb187db53d2}, ! Handle
  Component Data 1,                       ! Name
  {30231512-f44e-479a-a444-5d419c4a5e7c}, ! UUID
  {3184a81a-6ee5-4d30-bd15-eae39e1f5401}, ! Version UUID
  1363981560,                             ! Creation Timestamp
  1363981560,                             ! Version Timestamp
  {1ad9e5d8-bb43-4803-b3ae-40ebeb2c9e81}, ! Name of Object 1
  {41a3f5bd-f519-4c62-a87b-0fcd4e2b9cf8}, ! Name of Object 2
  {8e0c6572-98ea-4422-bab5-eb1b26c2c22a}; ! Name of Object 3

