
! 
OS:Version,
  {9c37d538-db0d-4a47-9850-5bede7e76bd5}, !- Handle
  1.13.0;                                 !- Version Identifier


! {"nombreProductoCorto": "CLIMALIT PLUS con COOL LITE XTREME 60/28 DIAMANT F2 6 (16 argon90%) 44.2 DIAMANT", "codigoEAN": "", "handle": "ceb3233c-a0d2-4196-ad8d-ba6d4f66a893", "g": 0.28, "tV": 0.6, "u": 1.0, "nombreProducto": "CLIMALIT PLUS con COOL LITE XTREME 60/28 DIAMANT F2 6 (16 argon90%) 44.2 DIAMANT\nU:1.0 W/m2K - g:0.28 - Tv: 0.60"}
OS:WindowMaterial:SimpleGlazingSystem,
  {ceb3233c-a0d2-4196-ad8d-ba6d4f66a893}, !- Handle
  CLIMALIT PLUS con COOL LITE XTREME 60/28 DIAMANT F2 6 (16 argon90%) 44.2 DIAMANT, !- Name
  1.0,                                    !- U-Factor {W/m2-K}
  0.28,                                    !- Solar Heat Gain Coefficient
  0.6;                                    !- Visible Transmittance     
  
  
OS:Construction,
  {ecf8b5ef-035d-432f-9457-1565e1fe512f}, !- Handle
  CLIMALIT PLUS con COOL LITE XTREME 60/28 DIAMANT F2 6 (16 argon90%) 44.2 DIAMANT,                         !- Name
  ,                                       !- Surface Rendering Name
  {ceb3233c-a0d2-4196-ad8d-ba6d4f66a893}; !- Layer 1  

