
OS:Version,
  {1b3526d1-da9d-4c21-a928-a793daae9249}, ! Handle
  0.9.3;                                  ! Version Identifier

OS:Material,
  {a24800dc-b7c1-44e5-b80c-5b4a36646b25}, ! Handle
  MAT-CC05 8 HW CONCRETE,                 ! Name
  Rough,                                  ! Roughness
  0.20321,                                ! Thickness {m}
  1.311,                                  ! Conductivity {W/m-K}
  2240,                                   ! Density {kg/m3}
  836.8,                                  ! Specific Heat {J/kg-K}
  0.9,                                    ! Thermal Absorptance
  0.7,                                    ! Solar Absorptance
  0.7;                                    ! Visible Absorptance

OS:ComponentCost:LineItem,
  {09ab3acc-cd57-4622-a37e-fd3034b208ca}, ! Handle
  189.1-2009 Res 3A Ext Slab Unheated - 8in Slab without Carpet, ! Name
  ,                                       ! Type
  Construction,                           ! Line Item Type
  189.1-2009 Res 3A Ext Slab Unheated - 8in Slab without Carpet, ! Item Name
  ,                                       ! Object End Use Key
  ,                                       ! Quantity {dimensionless}
  45.52,                                  ! Material Cost {$}
  CostPerArea;                            ! Material Cost Units

OS:Construction,
  {09daa76c-6481-4757-a4cf-f7f7e94cb670}, ! Handle
  189.1-2009 Res 3A Ext Slab Unheated - 8in Slab without Carpet, ! Name
  ,                                       ! Surface Rendering Name
  {a24800dc-b7c1-44e5-b80c-5b4a36646b25}; ! Layer 1

