
OS:Version,
  {c7dbf601-be72-44b5-8179-e7ea6e54edb6}, !- Handle
  1.1.0;                                  !- Version Identifier

OS:Construction,
  {f61d388d-10a9-4c6b-8b4c-2bf0cd576cc7}, !- Handle
  Dbl Ref-B-L Clr 6mm/13mm Air,           !- Name
  ,                                       !- Surface Rendering Name
  {6824bd02-cddf-489e-b8b4-1687a417d666}, !- Layer 1
  {e26470c8-f76e-4806-97e3-3eafa198a622}, !- Layer 2
  {04297792-eb4c-4c28-99a5-9287e6356d57}; !- Layer 3

OS:WindowMaterial:Glazing,
  {6824bd02-cddf-489e-b8b4-1687a417d666}, !- Handle
  REF B CLEAR LO 6MM,                     !- Name
  SpectralAverage,                        !- Optical Data Type
  ,                                       !- Window Glass Spectral Data Set Name
  0.006,                                  !- Thickness {m}
  0.15,                                   !- Solar Transmittance at Normal Incidence
  0.22,                                   !- Front Side Solar Reflectance at Normal Incidence
  0.38,                                   !- Back Side Solar Reflectance at Normal Incidence
  0.2,                                    !- Visible Transmittance at Normal Incidence
  0.23,                                   !- Front Side Visible Reflectance at Normal Incidence
  0.33,                                   !- Back Side Visible Reflectance at Normal Incidence
  0,                                      !- Infrared Transmittance at Normal Incidence
  0.84,                                   !- Front Side Infrared Hemispherical Emissivity
  0.58,                                   !- Back Side Infrared Hemispherical Emissivity
  0.9;                                    !- Conductivity {W/m-K}

OS:WindowMaterial:Gas,
  {e26470c8-f76e-4806-97e3-3eafa198a622}, !- Handle
  AIR 13MM,                               !- Name
  Air,                                    !- Gas Type
  0.0127;                                 !- Thickness {m}

OS:WindowMaterial:Glazing,
  {04297792-eb4c-4c28-99a5-9287e6356d57}, !- Handle
  CLEAR 6MM,                              !- Name
  SpectralAverage,                        !- Optical Data Type
  ,                                       !- Window Glass Spectral Data Set Name
  0.006,                                  !- Thickness {m}
  0.775,                                  !- Solar Transmittance at Normal Incidence
  0.071,                                  !- Front Side Solar Reflectance at Normal Incidence
  0.071,                                  !- Back Side Solar Reflectance at Normal Incidence
  0.881,                                  !- Visible Transmittance at Normal Incidence
  0.08,                                   !- Front Side Visible Reflectance at Normal Incidence
  0.08,                                   !- Back Side Visible Reflectance at Normal Incidence
  0,                                      !- Infrared Transmittance at Normal Incidence
  0.84,                                   !- Front Side Infrared Hemispherical Emissivity
  0.84,                                   !- Back Side Infrared Hemispherical Emissivity
  0.9;                                    !- Conductivity {W/m-K}

