
OS:Version,
  {b5608c5d-80df-4fab-be31-d01edf8cfa2e}, ! Handle
  0.9.3;                                  ! Version Identifier

OS:Construction,
  {fdb3a96c-8050-4a9b-b6cc-9aa8846b290f}, ! Handle
  90.1-1999 Res B20 Int Wall,             ! Name
  ,                                       ! Surface Rendering Name
  {e0c09734-ee06-4953-acd0-ffb061dca6f4}, ! Layer 1
  {e0c09734-ee06-4953-acd0-ffb061dca6f4}; ! Layer 2

OS:Material,
  {e0c09734-ee06-4953-acd0-ffb061dca6f4}, ! Handle
  GP01 1/2 GYPSUM,                        ! Name
  Smooth,                                 ! Roughness
  0.01271,                                ! Thickness {m}
  0.16,                                   ! Conductivity {W/m-K}
  800,                                    ! Density {kg/m3}
  1090,                                   ! Specific Heat {J/kg-K}
  0.9,                                    ! Thermal Absorptance
  0.7,                                    ! Solar Absorptance
  0.5;                                    ! Visible Absorptance

OS:Material,
  {570345f8-6f5d-43e3-83e6-1b47c3226edc}, ! Handle
  GP01 1/2 GYPSUM 1,                      ! Name
  Smooth,                                 ! Roughness
  0.01271,                                ! Thickness {m}
  0.16,                                   ! Conductivity {W/m-K}
  800,                                    ! Density {kg/m3}
  1090,                                   ! Specific Heat {J/kg-K}
  0.9,                                    ! Thermal Absorptance
  0.7,                                    ! Solar Absorptance
  0.5;                                    ! Visible Absorptance

OS:ComponentCost:LineItem,
  {1473884c-8fee-467a-b931-046e99ebd31a}, ! Handle
  90.1-1999 Res B20 Int Wall,             ! Name
  ,                                       ! Type
  Construction,                           ! Line Item Type
  90.1-1999 Res B20 Int Wall,             ! Item Name
  ,                                       ! Object End Use Key
  ,                                       ! Quantity {dimensionless}
  0,                                      ! Material Cost {$}
  CostPerArea;                            ! Material Cost Units

