
OS:Version,
  {e9551d93-8646-48a8-81bb-5dd55adfab75}, ! Handle
  0.9.3;                                  ! Version Identifier

OS:Material,
  {0e1919ae-ac5e-46d3-b5a3-b40715e01670}, ! Handle
  SpandrelGlass,                          ! Name
  Smooth,                                 ! Roughness
  0.007,                                  ! Thickness {m}
  45.31,                                  ! Conductivity {W/m-K}
  7833.02,                                ! Density {kg/m3}
  500,                                    ! Specific Heat {J/kg-K}
  0.9,                                    ! Thermal Absorptance
  0.23,                                   ! Solar Absorptance
  0.23;                                   ! Visible Absorptance

OS:Material,
  {67f564f6-01c8-47db-893b-4379f7d0ecb7}, ! Handle
  Wall Insulation [57],                   ! Name
  MediumRough,                            ! Roughness
  0.165746,                               ! Thickness {m}
  0.045,                                  ! Conductivity {W/m-K}
  265,                                    ! Density {kg/m3}
  836.8,                                  ! Specific Heat {J/kg-K}
  0.9,                                    ! Thermal Absorptance
  0.7,                                    ! Solar Absorptance
  0.7;                                    ! Visible Absorptance

OS:Construction,
  {c31b21ae-862b-4f73-a23a-d5303ae62848}, ! Handle
  AEDG-SmOffice 8A Ext Wall Spandrel,     ! Name
  ,                                       ! Surface Rendering Name
  {0e1919ae-ac5e-46d3-b5a3-b40715e01670}, ! Layer 1
  {67f564f6-01c8-47db-893b-4379f7d0ecb7}, ! Layer 2
  {0323f711-7b6f-459f-84fa-3ee02dd458cc}; ! Layer 3

OS:Material,
  {0323f711-7b6f-459f-84fa-3ee02dd458cc}, ! Handle
  1/2IN Gypsum,                           ! Name
  Smooth,                                 ! Roughness
  0.01271,                                ! Thickness {m}
  0.16,                                   ! Conductivity {W/m-K}
  784.9,                                  ! Density {kg/m3}
  830,                                    ! Specific Heat {J/kg-K}
  0.9,                                    ! Thermal Absorptance
  0.92,                                   ! Solar Absorptance
  0.92;                                   ! Visible Absorptance

OS:ComponentCost:LineItem,
  {467298c1-31b6-4bf4-8ef3-6499f091a36b}, ! Handle
  AEDG-SmOffice 8A Ext Wall Spandrel,     ! Name
  ,                                       ! Type
  Construction,                           ! Line Item Type
  AEDG-SmOffice 8A Ext Wall Spandrel,     ! Item Name
  ,                                       ! Object End Use Key
  ,                                       ! Quantity {dimensionless}
  83.69,                                  ! Material Cost {$}
  CostPerArea;                            ! Material Cost Units

