
OS:Version,
  {81ac82d7-a451-4219-bb67-92d639b31f2c}, ! Handle
  0.9.3;                                  ! Version Identifier

OS:ComponentCost:LineItem,
  {41500c48-4bc4-4995-9e85-be2dda83762a}, ! Handle
  90.1-2007 Res 5B Ext Slab Unheated - 4in Slab with Carpet, ! Name
  ,                                       ! Type
  Construction,                           ! Line Item Type
  90.1-2007 Res 5B Ext Slab Unheated - 4in Slab with Carpet, ! Item Name
  ,                                       ! Object End Use Key
  ,                                       ! Quantity {dimensionless}
  45.52,                                  ! Material Cost {$}
  CostPerArea;                            ! Material Cost Units

OS:Construction,
  {d3faacda-e2db-4cf3-893a-26d3061e7991}, ! Handle
  90.1-2007 Res 5B Ext Slab Unheated - 4in Slab with Carpet, ! Name
  ,                                       ! Surface Rendering Name
  {c5272442-0fcb-4bf1-8c92-a05c2c6e862a}, ! Layer 1
  {84c8d5c7-5b29-48ff-bcd2-6b34153d07e9}; ! Layer 2

OS:Material,
  {c5272442-0fcb-4bf1-8c92-a05c2c6e862a}, ! Handle
  MAT-CC05 4 HW CONCRETE,                 ! Name
  Rough,                                  ! Roughness
  0.1016,                                 ! Thickness {m}
  1.311,                                  ! Conductivity {W/m-K}
  2240,                                   ! Density {kg/m3}
  836.8,                                  ! Specific Heat {J/kg-K}
  0.9,                                    ! Thermal Absorptance
  0.7,                                    ! Solar Absorptance
  0.7;                                    ! Visible Absorptance

OS:Material:NoMass,
  {84c8d5c7-5b29-48ff-bcd2-6b34153d07e9}, ! Handle
  CP02 CARPET PAD,                        ! Name
  VeryRough,                              ! Roughness
  0.21648,                                ! Thermal Resistance {m2-K/W}
  0.9,                                    ! Thermal Absorptance
  0.7,                                    ! Solar Absorptance
  0.8;                                    ! Visible Absorptance

