
OS:Version,
  {aba6c3a0-c0b9-427c-a276-0cf10fe2445f}, ! Handle
  0.9.3;                                  ! Version Identifier

OS:Construction,
  {a23ddf95-09ef-46da-8d3a-f287930ee3bc}, ! Handle
  90.1-2004 Nonres 7A Window Fixed,       ! Name
  ,                                       ! Surface Rendering Name
  {ec779d54-2e32-4ad7-9d74-ae67c3946387}; ! Layer 1

OS:WindowMaterial:Glazing,
  {ec779d54-2e32-4ad7-9d74-ae67c3946387}, ! Handle
  Theoretical Glass [152],                ! Name
  SpectralAverage,                        ! Optical Data Type
  ,                                       ! Window Glass Spectral Data Set Name
  0.003,                                  ! Thickness {m}
  0.633525,                               ! Solar Transmittance at Normal Incidence
  0.316475,                               ! Front Side Solar Reflectance at Normal Incidence
  0.316475,                               ! Back Side Solar Reflectance at Normal Incidence
  0.639644,                               ! Visible Transmittance at Normal Incidence
  0.310356,                               ! Front Side Visible Reflectance at Normal Incidence
  0.310356,                               ! Back Side Visible Reflectance at Normal Incidence
  0,                                      ! Infrared Transmittance at Normal Incidence
  0.9,                                    ! Front Side Infrared Hemispherical Emissivity
  0.9,                                    ! Back Side Infrared Hemispherical Emissivity
  0.0134755;                              ! Conductivity {W/m-K}

OS:ComponentCost:LineItem,
  {110ee444-5196-4f01-9ea9-48687bf0f774}, ! Handle
  90.1-2004 Nonres 7A Window Fixed,       ! Name
  ,                                       ! Type
  Construction,                           ! Line Item Type
  90.1-2004 Nonres 7A Window Fixed,       ! Item Name
  ,                                       ! Object End Use Key
  ,                                       ! Quantity {dimensionless}
  531.711,                                ! Material Cost {$}
  CostPerArea;                            ! Material Cost Units

OS:ComponentData,
  {7b93a25d-c500-422f-b09f-5dfe1f0fefad}, ! Handle
  Component Data 1,                       ! Name
  {fe4e2db6-7357-4271-8da5-7997d3866fbb}, ! UUID
  {9d66cf55-cfe8-412a-9b81-ca4c84d9b5a5}, ! Version UUID
  1363981699,                             ! Creation Timestamp
  1363981699,                             ! Version Timestamp
  {a23ddf95-09ef-46da-8d3a-f287930ee3bc}, ! Name of Object 1
  {ec779d54-2e32-4ad7-9d74-ae67c3946387}, ! Name of Object 2
  {110ee444-5196-4f01-9ea9-48687bf0f774}; ! Name of Object 3

