
OS:Version,
  {41346f5f-6eee-4fdb-b322-c024c4314336}, ! Handle
  0.9.3;                                  ! Version Identifier

OS:Construction,
  {575e17a4-d932-4ed0-b908-1d4b6bfebf03}, ! Handle
  90.1-2004 Nonres 7A Window Fixed,       ! Name
  ,                                       ! Surface Rendering Name
  {f095a4c9-581d-42c5-97f6-74f2f95ee6ad}; ! Layer 1

OS:WindowMaterial:Glazing,
  {f095a4c9-581d-42c5-97f6-74f2f95ee6ad}, ! Handle
  Theoretical Glass [152],                ! Name
  SpectralAverage,                        ! Optical Data Type
  ,                                       ! Window Glass Spectral Data Set Name
  0.003,                                  ! Thickness {m}
  0.633525,                               ! Solar Transmittance at Normal Incidence
  0.316475,                               ! Front Side Solar Reflectance at Normal Incidence
  0.316475,                               ! Back Side Solar Reflectance at Normal Incidence
  0.639644,                               ! Visible Transmittance at Normal Incidence
  0.310356,                               ! Front Side Visible Reflectance at Normal Incidence
  0.310356,                               ! Back Side Visible Reflectance at Normal Incidence
  0,                                      ! Infrared Transmittance at Normal Incidence
  0.9,                                    ! Front Side Infrared Hemispherical Emissivity
  0.9,                                    ! Back Side Infrared Hemispherical Emissivity
  0.0134755;                              ! Conductivity {W/m-K}

OS:ComponentCost:LineItem,
  {bb7cac3f-b29f-447e-b739-f1e39768ceeb}, ! Handle
  90.1-2004 Nonres 7A Window Fixed,       ! Name
  ,                                       ! Type
  Construction,                           ! Line Item Type
  90.1-2004 Nonres 7A Window Fixed,       ! Item Name
  ,                                       ! Object End Use Key
  ,                                       ! Quantity {dimensionless}
  531.711,                                ! Material Cost {$}
  CostPerArea;                            ! Material Cost Units

