
OS:Version,
  {373b1d6d-3775-4cfc-9e10-5b2dcc94a76a}, ! Handle
  0.9.3;                                  ! Version Identifier

OS:Material,
  {56147666-4a98-4af5-957c-91e15daf270d}, ! Handle
  Roof Insulation [5],                    ! Name
  MediumRough,                            ! Roughness
  0.286906,                               ! Thickness {m}
  0.049,                                  ! Conductivity {W/m-K}
  265,                                    ! Density {kg/m3}
  836.8,                                  ! Specific Heat {J/kg-K}
  0.9,                                    ! Thermal Absorptance
  0.7,                                    ! Solar Absorptance
  0.7;                                    ! Visible Absorptance

OS:ComponentCost:LineItem,
  {4f8030a9-d3fb-4574-9181-a96345a7d15a}, ! Handle
  90.1-1999 Res B10 Roof Attic and Other, ! Name
  ,                                       ! Type
  Construction,                           ! Line Item Type
  90.1-1999 Res B10 Roof Attic and Other, ! Item Name
  ,                                       ! Object End Use Key
  ,                                       ! Quantity {dimensionless}
  34.757,                                 ! Material Cost {$}
  CostPerArea;                            ! Material Cost Units

OS:Material,
  {e63cfb40-c8eb-44eb-9240-0aed7c1627d1}, ! Handle
  1/2IN Gypsum,                           ! Name
  Smooth,                                 ! Roughness
  0.01271,                                ! Thickness {m}
  0.16,                                   ! Conductivity {W/m-K}
  784.9,                                  ! Density {kg/m3}
  830,                                    ! Specific Heat {J/kg-K}
  0.9,                                    ! Thermal Absorptance
  0.92,                                   ! Solar Absorptance
  0.92;                                   ! Visible Absorptance

OS:Material,
  {b1d5ea42-efca-4c8f-8159-5b3f8b2f4fc7}, ! Handle
  1IN Wood Decking,                       ! Name
  MediumSmooth,                           ! Roughness
  0.0254,                                 ! Thickness {m}
  0.1211,                                 ! Conductivity {W/m-K}
  593,                                    ! Density {kg/m3}
  2510,                                   ! Specific Heat {J/kg-K}
  0.9,                                    ! Thermal Absorptance
  0.78,                                   ! Solar Absorptance
  0.78;                                   ! Visible Absorptance

OS:Material,
  {ebd44489-ed57-4ccc-8ed4-b65fab1aacdd}, ! Handle
  Wood Shingles,                          ! Name
  VeryRough,                              ! Roughness
  0.0178,                                 ! Thickness {m}
  0.115,                                  ! Conductivity {W/m-K}
  513,                                    ! Density {kg/m3}
  1255,                                   ! Specific Heat {J/kg-K}
  0.9,                                    ! Thermal Absorptance
  0.78,                                   ! Solar Absorptance
  0.78;                                   ! Visible Absorptance

OS:Construction,
  {aab71461-062d-40e6-bd11-8e97ecb94b48}, ! Handle
  90.1-1999 Res B10 Roof Attic and Other, ! Name
  ,                                       ! Surface Rendering Name
  {ebd44489-ed57-4ccc-8ed4-b65fab1aacdd}, ! Layer 1
  {b1d5ea42-efca-4c8f-8159-5b3f8b2f4fc7}, ! Layer 2
  {56147666-4a98-4af5-957c-91e15daf270d}, ! Layer 3
  {e63cfb40-c8eb-44eb-9240-0aed7c1627d1}; ! Layer 4

