
OS:Version,
  {1a0959d8-d89a-4141-816c-ffaddd68b18f}, ! Handle
  0.9.3;                                  ! Version Identifier

OS:Material,
  {3f6f88b0-7186-4b9e-b8f4-5ab5123e834f}, ! Handle
  1/2IN Gypsum,                           ! Name
  Smooth,                                 ! Roughness
  0.01271,                                ! Thickness {m}
  0.16,                                   ! Conductivity {W/m-K}
  784.9,                                  ! Density {kg/m3}
  830,                                    ! Specific Heat {J/kg-K}
  0.9,                                    ! Thermal Absorptance
  0.92,                                   ! Solar Absorptance
  0.92;                                   ! Visible Absorptance

OS:Material:NoMass,
  {0f6a36a0-a660-41ec-b955-eb636d5929fe}, ! Handle
  MAT-SHEATH,                             ! Name
  Rough,                                  ! Roughness
  0.36256,                                ! Thermal Resistance {m2-K/W}
  0.9,                                    ! Thermal Absorptance
  0.7,                                    ! Solar Absorptance
  0.7;                                    ! Visible Absorptance

OS:Material,
  {6e846e89-8d61-420a-ba62-51b49103acef}, ! Handle
  Wall Insulation [10],                   ! Name
  MediumRough,                            ! Roughness
  0.0971136,                              ! Thickness {m}
  0.045,                                  ! Conductivity {W/m-K}
  265,                                    ! Density {kg/m3}
  836.8,                                  ! Specific Heat {J/kg-K}
  0.9,                                    ! Thermal Absorptance
  0.7,                                    ! Solar Absorptance
  0.7;                                    ! Visible Absorptance

OS:Construction,
  {04510bf8-ed36-4c3d-a034-339d11ac30ba}, ! Handle
  90.1-2001 Res B22 Ext Wall Steel-Framed, ! Name
  ,                                       ! Surface Rendering Name
  {0f6a36a0-a660-41ec-b955-eb636d5929fe}, ! Layer 1
  {6e846e89-8d61-420a-ba62-51b49103acef}, ! Layer 2
  {3f6f88b0-7186-4b9e-b8f4-5ab5123e834f}; ! Layer 3

OS:ComponentCost:LineItem,
  {9377b004-002a-4b00-afa7-aa5318007adf}, ! Handle
  90.1-2001 Res B22 Ext Wall Steel-Framed, ! Name
  ,                                       ! Type
  Construction,                           ! Line Item Type
  90.1-2001 Res B22 Ext Wall Steel-Framed, ! Item Name
  ,                                       ! Object End Use Key
  ,                                       ! Quantity {dimensionless}
  94.657,                                 ! Material Cost {$}
  CostPerArea;                            ! Material Cost Units

