
OS:Version,
  {0cf8acf7-3c55-474d-b3e9-8cb5706936c7}, ! Handle
  0.9.3;                                  ! Version Identifier

OS:ComponentCost:LineItem,
  {54240079-aaac-4ea7-9e62-5ebcd44899ee}, ! Handle
  90.1 Windows Window Fixed 2419 Brk-HptSbe-Ins-Clr, ! Name
  ,                                       ! Type
  Construction,                           ! Line Item Type
  90.1 Windows Window Fixed 2419 Brk-HptSbe-Ins-Clr, ! Item Name
  ,                                       ! Object End Use Key
  ,                                       ! Quantity {dimensionless}
  0,                                      ! Material Cost {$}
  CostPerArea;                            ! Material Cost Units

OS:Construction,
  {2713bf8e-c1f0-4aea-bdb6-a382fb33703a}, ! Handle
  90.1 Windows Window Fixed 2419 Brk-HptSbe-Ins-Clr, ! Name
  ,                                       ! Surface Rendering Name
  {3fde3339-1793-4904-8239-69c698afc3aa}; ! Layer 1

OS:WindowMaterial:Glazing,
  {3fde3339-1793-4904-8239-69c698afc3aa}, ! Handle
  Theoretical Glass [496],                ! Name
  SpectralAverage,                        ! Optical Data Type
  ,                                       ! Window Glass Spectral Data Set Name
  0.003,                                  ! Thickness {m}
  0.256048,                               ! Solar Transmittance at Normal Incidence
  0.693952,                               ! Front Side Solar Reflectance at Normal Incidence
  0.693952,                               ! Back Side Solar Reflectance at Normal Incidence
  0.34081,                                ! Visible Transmittance at Normal Incidence
  0.60919,                                ! Front Side Visible Reflectance at Normal Incidence
  0.60919,                                ! Back Side Visible Reflectance at Normal Incidence
  0,                                      ! Infrared Transmittance at Normal Incidence
  0.9,                                    ! Front Side Infrared Hemispherical Emissivity
  0.9,                                    ! Back Side Infrared Hemispherical Emissivity
  0.0125205;                              ! Conductivity {W/m-K}

