
OS:Version,
  {90370d62-2fcf-48e5-8cee-52a3fcdf844b}, ! Handle
  0.9.3;                                  ! Version Identifier

OS:Material,
  {ebf6cafc-6286-4623-9788-8f08be12633f}, ! Handle
  Roof Insulation,                        ! Name
  MediumRough,                            ! Roughness
  0.124958,                               ! Thickness {m}
  0.049,                                  ! Conductivity {W/m-K}
  265,                                    ! Density {kg/m3}
  836.8,                                  ! Specific Heat {J/kg-K}
  0.9,                                    ! Thermal Absorptance
  0.7,                                    ! Solar Absorptance
  0.7;                                    ! Visible Absorptance

OS:ComponentCost:LineItem,
  {16e0f094-a5c8-45f1-9170-b8456e0293b6}, ! Handle
  90.1-1999 Nonres B16 Roof IEAD,         ! Name
  ,                                       ! Type
  Construction,                           ! Line Item Type
  90.1-1999 Nonres B16 Roof IEAD,         ! Item Name
  ,                                       ! Object End Use Key
  ,                                       ! Quantity {dimensionless}
  49.208,                                 ! Material Cost {$}
  CostPerArea;                            ! Material Cost Units

OS:Material,
  {d3848304-4ed7-427a-b98b-f07f44081f9b}, ! Handle
  Metal Decking,                          ! Name
  MediumSmooth,                           ! Roughness
  0.001524,                               ! Thickness {m}
  45.006,                                 ! Conductivity {W/m-K}
  7680,                                   ! Density {kg/m3}
  418.4,                                  ! Specific Heat {J/kg-K}
  0.9,                                    ! Thermal Absorptance
  0.7,                                    ! Solar Absorptance
  0.3;                                    ! Visible Absorptance

OS:Material,
  {1052028f-403c-4738-9423-8f2baac243dd}, ! Handle
  Roof Membrane,                          ! Name
  VeryRough,                              ! Roughness
  0.0095,                                 ! Thickness {m}
  0.16,                                   ! Conductivity {W/m-K}
  1121.29,                                ! Density {kg/m3}
  1460,                                   ! Specific Heat {J/kg-K}
  0.9,                                    ! Thermal Absorptance
  0.7,                                    ! Solar Absorptance
  0.7;                                    ! Visible Absorptance

OS:Construction,
  {bf715ef8-75ce-45b5-88de-254d4924f7e0}, ! Handle
  90.1-1999 Nonres B16 Roof IEAD,         ! Name
  ,                                       ! Surface Rendering Name
  {1052028f-403c-4738-9423-8f2baac243dd}, ! Layer 1
  {ebf6cafc-6286-4623-9788-8f08be12633f}, ! Layer 2
  {d3848304-4ed7-427a-b98b-f07f44081f9b}; ! Layer 3

