
OS:Version,
  {6b930a75-3894-464c-8fc2-c14aca3421c7}, ! Handle
  0.9.3;                                  ! Version Identifier

OS:Material,
  {51f8e654-2b7c-47ec-b065-197f0d2b1fc1}, ! Handle
  MAT-CC05 8 HW CONCRETE,                 ! Name
  Rough,                                  ! Roughness
  0.20321,                                ! Thickness {m}
  1.311,                                  ! Conductivity {W/m-K}
  2240,                                   ! Density {kg/m3}
  836.8,                                  ! Specific Heat {J/kg-K}
  0.9,                                    ! Thermal Absorptance
  0.7,                                    ! Solar Absorptance
  0.7;                                    ! Visible Absorptance

OS:Construction,
  {ee472485-f064-46c8-bb34-daaf6e0af6dd}, ! Handle
  Title 24-2008 Nonres 16 Ext Slab Unheated - 8in Slab without Carpet, ! Name
  ,                                       ! Surface Rendering Name
  {51f8e654-2b7c-47ec-b065-197f0d2b1fc1}; ! Layer 1

OS:ComponentCost:LineItem,
  {c16abe9c-77b7-432d-9e8e-4f9ac924043a}, ! Handle
  Title 24-2008 Nonres 16 Ext Slab Unheated - 8in Slab without Carpet, ! Name
  ,                                       ! Type
  Construction,                           ! Line Item Type
  Title 24-2008 Nonres 16 Ext Slab Unheated - 8in Slab without Carpet, ! Item Name
  ,                                       ! Object End Use Key
  ,                                       ! Quantity {dimensionless}
  45.52,                                  ! Material Cost {$}
  CostPerArea;                            ! Material Cost Units

