
OS:Version,
  {24cc87d5-fb8c-4bc2-abd9-f97207b86b3a}, ! Handle
  0.9.3;                                  ! Version Identifier

OS:Construction,
  {58412e07-7d62-482e-844b-a102e4f20a1f}, ! Handle
  Title 24-2008 Nonres 16 Ext Slab Unheated - 8in Slab without Carpet, ! Name
  ,                                       ! Surface Rendering Name
  {5ba94c5d-8c43-4fac-bf15-e8f2f9629017}; ! Layer 1

OS:Material,
  {5ba94c5d-8c43-4fac-bf15-e8f2f9629017}, ! Handle
  MAT-CC05 8 HW CONCRETE,                 ! Name
  Rough,                                  ! Roughness
  0.20321,                                ! Thickness {m}
  1.311,                                  ! Conductivity {W/m-K}
  2240,                                   ! Density {kg/m3}
  836.8,                                  ! Specific Heat {J/kg-K}
  0.9,                                    ! Thermal Absorptance
  0.7,                                    ! Solar Absorptance
  0.7;                                    ! Visible Absorptance

OS:ComponentCost:LineItem,
  {0ef7ffc1-0c6e-469c-b45f-1d782844fe5e}, ! Handle
  Title 24-2008 Nonres 16 Ext Slab Unheated - 8in Slab without Carpet, ! Name
  ,                                       ! Type
  Construction,                           ! Line Item Type
  Title 24-2008 Nonres 16 Ext Slab Unheated - 8in Slab without Carpet, ! Item Name
  ,                                       ! Object End Use Key
  ,                                       ! Quantity {dimensionless}
  45.52,                                  ! Material Cost {$}
  CostPerArea;                            ! Material Cost Units

OS:ComponentData,
  {1c9d08ec-77e3-4e9e-a6b4-06b11cad78a5}, ! Handle
  Component Data 1,                       ! Name
  {74ccbe78-fc67-4880-9f00-4e17177d5c52}, ! UUID
  {cc58d259-8b40-447f-8d4b-d370471654ea}, ! Version UUID
  1363982124,                             ! Creation Timestamp
  1363982124,                             ! Version Timestamp
  {58412e07-7d62-482e-844b-a102e4f20a1f}, ! Name of Object 1
  {5ba94c5d-8c43-4fac-bf15-e8f2f9629017}, ! Name of Object 2
  {0ef7ffc1-0c6e-469c-b45f-1d782844fe5e}; ! Name of Object 3

