
OS:Version,
  {5a3f4d8c-2c5e-490e-9ff8-d9928785a0bd}, !- Handle
  1.0.6;                                  !- Version Identifier

OS:WindowMaterial:Glazing,
  {2bc343f6-224d-4e70-a828-6c0365591562}, !- Handle
  189.1-2011 NONRES 4B METAL FRAMING ENTRANCE DOOR THEORETICAL GLAZING, !- Name
  SpectralAverage,                        !- Optical Data Type
  ,                                       !- Window Glass Spectral Data Set Name
  0.002,                                  !- Thickness {m}
  0.20303,                                !- Solar Transmittance at Normal Incidence
  0.36259,                                !- Front Side Solar Reflectance at Normal Incidence
  0.36259,                                !- Back Side Solar Reflectance at Normal Incidence
  0.20303,                                !- Visible Transmittance at Normal Incidence
  0.36259,                                !- Front Side Visible Reflectance at Normal Incidence
  0.36259,                                !- Back Side Visible Reflectance at Normal Incidence
  0,                                      !- Infrared Transmittance at Normal Incidence
  0.84,                                   !- Front Side Infrared Hemispherical Emissivity
  0.84,                                   !- Back Side Infrared Hemispherical Emissivity
  0.02998,                                !- Conductivity {W/m-K}
  1,                                      !- Dirt Correction Factor for Solar and Visible Transmittance
  No;                                     !- Solar Diffusing

OS:Construction,
  {ae936e5f-f2cb-4add-b666-7cb7304f8220}, !- Handle
  189.1-2011 NONRES 4B METAL FRAMING ENTRANCE DOOR, !- Name
  ,                                       !- Surface Rendering Name
  {2bc343f6-224d-4e70-a828-6c0365591562}; !- Layer 1

