
OS:Version,
  {6f768807-2fbd-49b2-93ae-3af098aa3711}, ! Handle
  0.9.3;                                  ! Version Identifier

OS:Construction,
  {6f9e2f07-4b73-43d1-afcc-01f0f16336ed}, ! Handle
  189.1-2009 Nonres 1A Ext Slab Unheated - 8in Slab with Carpet, ! Name
  ,                                       ! Surface Rendering Name
  {2d46076a-79a9-4403-87a1-ad8035988fb1}, ! Layer 1
  {e5177b90-dc0c-44a7-9e95-3675d82ff24e}; ! Layer 2

OS:Material,
  {2d46076a-79a9-4403-87a1-ad8035988fb1}, ! Handle
  MAT-CC05 8 HW CONCRETE,                 ! Name
  Rough,                                  ! Roughness
  0.20321,                                ! Thickness {m}
  1.311,                                  ! Conductivity {W/m-K}
  2240,                                   ! Density {kg/m3}
  836.8,                                  ! Specific Heat {J/kg-K}
  0.9,                                    ! Thermal Absorptance
  0.7,                                    ! Solar Absorptance
  0.7;                                    ! Visible Absorptance

OS:Material:NoMass,
  {e5177b90-dc0c-44a7-9e95-3675d82ff24e}, ! Handle
  CP02 CARPET PAD,                        ! Name
  VeryRough,                              ! Roughness
  0.21648,                                ! Thermal Resistance {m2-K/W}
  0.9,                                    ! Thermal Absorptance
  0.7,                                    ! Solar Absorptance
  0.8;                                    ! Visible Absorptance

OS:ComponentCost:LineItem,
  {be80b115-a22f-405b-b162-9623900fa741}, ! Handle
  189.1-2009 Nonres 1A Ext Slab Unheated - 8in Slab with Carpet, ! Name
  ,                                       ! Type
  Construction,                           ! Line Item Type
  189.1-2009 Nonres 1A Ext Slab Unheated - 8in Slab with Carpet, ! Item Name
  ,                                       ! Object End Use Key
  ,                                       ! Quantity {dimensionless}
  45.52,                                  ! Material Cost {$}
  CostPerArea;                            ! Material Cost Units

OS:ComponentData,
  {ca8f19fe-310e-4e2a-ac81-9888404e3e37}, ! Handle
  Component Data 1,                       ! Name
  {8cef8942-1b57-4f88-b6b8-3c9987490200}, ! UUID
  {f6013ee5-5bf4-464e-b45e-62cb0b3d0d09}, ! Version UUID
  1363979819,                             ! Creation Timestamp
  1363979819,                             ! Version Timestamp
  {6f9e2f07-4b73-43d1-afcc-01f0f16336ed}, ! Name of Object 1
  {2d46076a-79a9-4403-87a1-ad8035988fb1}, ! Name of Object 2
  {e5177b90-dc0c-44a7-9e95-3675d82ff24e}, ! Name of Object 3
  {be80b115-a22f-405b-b162-9623900fa741}; ! Name of Object 4

