
OS:Version,
  {fe5432c8-7379-4115-8a30-5a763298393e}, ! Handle
  0.9.3;                                  ! Version Identifier

OS:Construction,
  {2b8a0f4b-6ad3-4c9a-860d-e1ffde459b69}, ! Handle
  U-W DE MFH ExtWall -1918 2,		  ! Name
  ,                                       ! Surface Rendering Name
  {f434ad76-e6e9-4e3b-a983-d74996d037d0}, ! Layer 1
  {0dcd1e0c-9b10-4d62-9035-aac9d3c1c1df}, ! Layer 2
  {7600329a-9501-4ee5-9106-9faa055243d2}; ! Layer 3

OS:Material,
  {f434ad76-e6e9-4e3b-a983-d74996d037d0}, ! Handle	
  Gips-Kalk Innenputz 1.5cm,              ! Name
  Smooth,                                 ! Roughness
  0.015,                                  ! Thickness {m}
  0.7,                                    ! Conductivity {W/m-K}
  1100,                                   ! Density {kg/m3}
  1010,                                   ! Specific Heat {J/kg-K}
  0.3,                                    ! Thermal Absorptance
  0.3,                                    ! Solar Absorptance
  0.3;                                    ! Visible Absorptance

OS:Material,
  {0dcd1e0c-9b10-4d62-9035-aac9d3c1c1df}, ! Handle		
  Vollziegel 38cm,                        ! Name
  Smooth,                                 ! Roughness
  0.38,                                   ! Thickness {m}
  0.81,                                   ! Conductivity {W/m-K}
  1800,                                   ! Density {kg/m3}
  1000,                                   ! Specific Heat {J/kg-K}
  0.7,                                    ! Thermal Absorptance
  0.7,                                    ! Solar Absorptance
  0.7;                                    ! Visible Absorptance

OS:Material,
  {7600329a-9501-4ee5-9106-9faa055243d2}, ! Handle		
  Kalkputz 2cm,                           ! Name
  Smooth,                                 ! Roughness
  0.02,                                   ! Thickness {m}
  0.87,                                   ! Conductivity {W/m-K}
  1400,                                   ! Density {kg/m3}
  0.3,                                    ! Thermal Absorptance
  0.3,                                    ! Solar Absorptance
  0.3;                                    ! Visible Absorptance

OS:ComponentCost:LineItem,
  {952f139f-5dc4-428e-bdeb-df4dafb43771}, ! Handle
  U-W DE MFH ExtWall -1918 2,             ! Name
  ,                                       ! Type
  Construction,                           ! Line Item Type
  U-W DE MFH ExtWall -1918 2,             ! Item Name
  ,                                       ! Object End Use Key
  ,                                       ! Quantity {dimensionless}
  0.0,                                    ! Material Cost {$}
  CostPerArea;                            ! Material Cost Units

OS:ComponentData,
  {6737fb5e-cef4-11e7-abc4-cec278b6b50a}, ! Handle
  Component Data 1,                       ! Name
  {6737fc1c-cef4-11e7-abc4-cec278b6b50a}, ! UUID
  {6737ff78-cef4-11e7-abc4-cec278b6b50a}, ! Version UUID
  1363981182,                             ! Creation Timestamp
  1363981182,                             ! Version Timestamp
  {2b8a0f4b-6ad3-4c9a-860d-e1ffde459b69}, ! Name of Object 1
  {f434ad76-e6e9-4e3b-a983-d74996d037d0}, ! Name of Object 2
  {0dcd1e0c-9b10-4d62-9035-aac9d3c1c1df}, ! Name of Object 3
  {7600329a-9501-4ee5-9106-9faa055243d2}, ! Name of Object 4
  {952f139f-5dc4-428e-bdeb-df4dafb43771}; ! Name of Object 5

