
OS:Version,
  {03872a2e-5277-43fd-88b0-a3ff9bd3ab9b}, ! Handle
  0.9.3;                                  ! Version Identifier

OS:ComponentCost:LineItem,
  {8b672b75-2423-4b9e-a63f-8ad71431e147}, ! Handle
  90.1-1999 Res B10 Ext Wall Steel-Framed, ! Name
  ,                                       ! Type
  Construction,                           ! Line Item Type
  90.1-1999 Res B10 Ext Wall Steel-Framed, ! Item Name
  ,                                       ! Object End Use Key
  ,                                       ! Quantity {dimensionless}
  91.749,                                 ! Material Cost {$}
  CostPerArea;                            ! Material Cost Units

OS:Construction,
  {2e8fcdbd-29b4-42cd-9e51-6c01e7602cde}, ! Handle
  90.1-1999 Res B10 Ext Wall Steel-Framed, ! Name
  ,                                       ! Surface Rendering Name
  {56377f2d-f035-40e0-b1b2-00cba4a16d95}, ! Layer 1
  {d7894a7b-e454-4562-b84b-d8c955512520}, ! Layer 2
  {78c12ef0-3e6a-4e16-b5cc-1ec8ff10c736}; ! Layer 3

OS:Material:NoMass,
  {56377f2d-f035-40e0-b1b2-00cba4a16d95}, ! Handle
  MAT-SHEATH,                             ! Name
  Rough,                                  ! Roughness
  0.36256,                                ! Thermal Resistance {m2-K/W}
  0.9,                                    ! Thermal Absorptance
  0.7,                                    ! Solar Absorptance
  0.7;                                    ! Visible Absorptance

OS:Material,
  {d7894a7b-e454-4562-b84b-d8c955512520}, ! Handle
  Wall Insulation [6],                    ! Name
  MediumRough,                            ! Roughness
  0.0678449,                              ! Thickness {m}
  0.045,                                  ! Conductivity {W/m-K}
  265,                                    ! Density {kg/m3}
  836.8,                                  ! Specific Heat {J/kg-K}
  0.9,                                    ! Thermal Absorptance
  0.7,                                    ! Solar Absorptance
  0.7;                                    ! Visible Absorptance

OS:Material,
  {78c12ef0-3e6a-4e16-b5cc-1ec8ff10c736}, ! Handle
  1/2IN Gypsum,                           ! Name
  Smooth,                                 ! Roughness
  0.01271,                                ! Thickness {m}
  0.16,                                   ! Conductivity {W/m-K}
  784.9,                                  ! Density {kg/m3}
  830,                                    ! Specific Heat {J/kg-K}
  0.9,                                    ! Thermal Absorptance
  0.92,                                   ! Solar Absorptance
  0.92;                                   ! Visible Absorptance

