
OS:Version,
  {744dfba0-08a9-4831-b426-ab77f373a28b}, ! Handle
  0.9.3;                                  ! Version Identifier

OS:Material,
  {b076e96f-441d-43c2-a385-697c0935a1e5}, ! Handle
  MAT-CC05 4 HW CONCRETE,                 ! Name
  Rough,                                  ! Roughness
  0.1016,                                 ! Thickness {m}
  1.311,                                  ! Conductivity {W/m-K}
  2240,                                   ! Density {kg/m3}
  836.8,                                  ! Specific Heat {J/kg-K}
  0.9,                                    ! Thermal Absorptance
  0.7,                                    ! Solar Absorptance
  0.7;                                    ! Visible Absorptance

OS:ComponentCost:LineItem,
  {4a7818a6-8792-468e-af08-50ecdfd28df2}, ! Handle
  Title 24-2008 Nonres 4 Ext Slab Unheated - 4in Slab without Carpet, ! Name
  ,                                       ! Type
  Construction,                           ! Line Item Type
  Title 24-2008 Nonres 4 Ext Slab Unheated - 4in Slab without Carpet, ! Item Name
  ,                                       ! Object End Use Key
  ,                                       ! Quantity {dimensionless}
  45.52,                                  ! Material Cost {$}
  CostPerArea;                            ! Material Cost Units

OS:Construction,
  {60446c61-3833-4b15-a8e7-907d112ccee4}, ! Handle
  Title 24-2008 Nonres 4 Ext Slab Unheated - 4in Slab without Carpet, ! Name
  ,                                       ! Surface Rendering Name
  {b076e96f-441d-43c2-a385-697c0935a1e5}; ! Layer 1

