
OS:Version,
  {69a5c2b6-1ea8-48c6-af55-c54af6aeb85f}, ! Handle
  0.9.3;                                  ! Version Identifier

OS:Material,
  {a301b337-b349-4aff-8581-494810c36a0c}, ! Handle
  Wall Insulation [1],                    ! Name
  MediumRough,                            ! Roughness
  0.0373223,                              ! Thickness {m}
  0.045,                                  ! Conductivity {W/m-K}
  265,                                    ! Density {kg/m3}
  836.8,                                  ! Specific Heat {J/kg-K}
  0.9,                                    ! Thermal Absorptance
  0.7,                                    ! Solar Absorptance
  0.7;                                    ! Visible Absorptance

OS:Material,
  {a7fbc4bb-6e61-4823-b983-62f9495c208b}, ! Handle
  1/2IN Gypsum,                           ! Name
  Smooth,                                 ! Roughness
  0.01271,                                ! Thickness {m}
  0.16,                                   ! Conductivity {W/m-K}
  784.9,                                  ! Density {kg/m3}
  830,                                    ! Specific Heat {J/kg-K}
  0.9,                                    ! Thermal Absorptance
  0.92,                                   ! Solar Absorptance
  0.92;                                   ! Visible Absorptance

OS:Material:NoMass,
  {7a6a369e-834f-48d6-b6c2-4469edd5ae3c}, ! Handle
  MAT-SHEATH,                             ! Name
  Rough,                                  ! Roughness
  0.36256,                                ! Thermal Resistance {m2-K/W}
  0.9,                                    ! Thermal Absorptance
  0.7,                                    ! Solar Absorptance
  0.7;                                    ! Visible Absorptance

OS:ComponentCost:LineItem,
  {a5cd5615-2f41-404e-b7a0-fc9f0f4b6aeb}, ! Handle
  90.1-2004 Res 1A Ext Wall Steel-Framed, ! Name
  ,                                       ! Type
  Construction,                           ! Line Item Type
  90.1-2004 Res 1A Ext Wall Steel-Framed, ! Item Name
  ,                                       ! Object End Use Key
  ,                                       ! Quantity {dimensionless}
  87.08,                                  ! Material Cost {$}
  CostPerArea;                            ! Material Cost Units

OS:Construction,
  {48bd626c-4996-42a3-ac82-e4a7222e6681}, ! Handle
  90.1-2004 Res 1A Ext Wall Steel-Framed, ! Name
  ,                                       ! Surface Rendering Name
  {7a6a369e-834f-48d6-b6c2-4469edd5ae3c}, ! Layer 1
  {a301b337-b349-4aff-8581-494810c36a0c}, ! Layer 2
  {a7fbc4bb-6e61-4823-b983-62f9495c208b}; ! Layer 3

