
OS:Version,
  {de9a9a39-0fde-43a2-beb1-891b8f9a7c81}, ! Handle
  0.9.3;                                  ! Version Identifier

OS:Construction,
  {6498cca8-d266-4fb1-abd7-1ad9cec0d577}, ! Handle
  Title 24-2008 Nonres 13 Ext Slab Unheated - 8in Slab without Carpet, ! Name
  ,                                       ! Surface Rendering Name
  {4228acee-faac-487e-b712-c67a45d7e8a4}; ! Layer 1

OS:Material,
  {4228acee-faac-487e-b712-c67a45d7e8a4}, ! Handle
  MAT-CC05 8 HW CONCRETE,                 ! Name
  Rough,                                  ! Roughness
  0.20321,                                ! Thickness {m}
  1.311,                                  ! Conductivity {W/m-K}
  2240,                                   ! Density {kg/m3}
  836.8,                                  ! Specific Heat {J/kg-K}
  0.9,                                    ! Thermal Absorptance
  0.7,                                    ! Solar Absorptance
  0.7;                                    ! Visible Absorptance

OS:ComponentCost:LineItem,
  {9cb1f22f-6f31-4e99-a9da-89b93b3739b0}, ! Handle
  Title 24-2008 Nonres 13 Ext Slab Unheated - 8in Slab without Carpet, ! Name
  ,                                       ! Type
  Construction,                           ! Line Item Type
  Title 24-2008 Nonres 13 Ext Slab Unheated - 8in Slab without Carpet, ! Item Name
  ,                                       ! Object End Use Key
  ,                                       ! Quantity {dimensionless}
  45.52,                                  ! Material Cost {$}
  CostPerArea;                            ! Material Cost Units

OS:ComponentData,
  {df1c2f97-dade-4f4f-9dcf-deae3bfb7437}, ! Handle
  Component Data 1,                       ! Name
  {a4fb213b-893f-4f35-be70-30c5cc3afaea}, ! UUID
  {705610ce-2360-426e-b0fc-73f49302a722}, ! Version UUID
  1363982091,                             ! Creation Timestamp
  1363982091,                             ! Version Timestamp
  {6498cca8-d266-4fb1-abd7-1ad9cec0d577}, ! Name of Object 1
  {4228acee-faac-487e-b712-c67a45d7e8a4}, ! Name of Object 2
  {9cb1f22f-6f31-4e99-a9da-89b93b3739b0}; ! Name of Object 3

