
OS:Version,
  {78d89383-8f54-4c50-9af2-80b51e90904c}, ! Handle
  0.9.3;                                  ! Version Identifier

OS:Construction,
  {23a1befb-ab21-40d3-a87d-8a2e49d99f5f}, ! Handle
  Title 24-2008 Nonres 13 Ext Slab Unheated - 8in Slab without Carpet, ! Name
  ,                                       ! Surface Rendering Name
  {c1a675d9-be8d-4582-83f8-e5b2a7cfccad}; ! Layer 1

OS:Material,
  {c1a675d9-be8d-4582-83f8-e5b2a7cfccad}, ! Handle
  MAT-CC05 8 HW CONCRETE,                 ! Name
  Rough,                                  ! Roughness
  0.20321,                                ! Thickness {m}
  1.311,                                  ! Conductivity {W/m-K}
  2240,                                   ! Density {kg/m3}
  836.8,                                  ! Specific Heat {J/kg-K}
  0.9,                                    ! Thermal Absorptance
  0.7,                                    ! Solar Absorptance
  0.7;                                    ! Visible Absorptance

OS:ComponentCost:LineItem,
  {2b31452c-9fd3-4945-bca6-c5f32b0c18e7}, ! Handle
  Title 24-2008 Nonres 13 Ext Slab Unheated - 8in Slab without Carpet, ! Name
  ,                                       ! Type
  Construction,                           ! Line Item Type
  Title 24-2008 Nonres 13 Ext Slab Unheated - 8in Slab without Carpet, ! Item Name
  ,                                       ! Object End Use Key
  ,                                       ! Quantity {dimensionless}
  45.52,                                  ! Material Cost {$}
  CostPerArea;                            ! Material Cost Units

