
OS:Version,
  {e08503b7-48c6-4a76-ac48-feea2ff4659d}, ! Handle
  0.9.3;                                  ! Version Identifier

OS:Construction,
  {549d0b6d-ccd0-4512-b3c3-c52b0a313e08}, ! Handle
  90.1-2001 Nonres B5 Skylight without Curb, ! Name
  ,                                       ! Surface Rendering Name
  {9c5607b4-8547-469a-a91b-01509af7e740}; ! Layer 1

OS:WindowMaterial:Glazing,
  {9c5607b4-8547-469a-a91b-01509af7e740}, ! Handle
  Theoretical Glass [8],                  ! Name
  SpectralAverage,                        ! Optical Data Type
  ,                                       ! Window Glass Spectral Data Set Name
  0.003,                                  ! Thickness {m}
  0.346104,                               ! Solar Transmittance at Normal Incidence
  0.603896,                               ! Front Side Solar Reflectance at Normal Incidence
  0.603896,                               ! Back Side Solar Reflectance at Normal Incidence
  0.376261,                               ! Visible Transmittance at Normal Incidence
  0.573739,                               ! Front Side Visible Reflectance at Normal Incidence
  0.573739,                               ! Back Side Visible Reflectance at Normal Incidence
  0,                                      ! Infrared Transmittance at Normal Incidence
  0.999,                                  ! Front Side Infrared Hemispherical Emissivity
  0.999,                                  ! Back Side Infrared Hemispherical Emissivity
  299.383;                                ! Conductivity {W/m-K}

OS:ComponentCost:LineItem,
  {94da8234-939a-48d6-9e64-9a96cb90cc31}, ! Handle
  90.1-2001 Nonres B5 Skylight without Curb, ! Name
  ,                                       ! Type
  Construction,                           ! Line Item Type
  90.1-2001 Nonres B5 Skylight without Curb, ! Item Name
  ,                                       ! Object End Use Key
  ,                                       ! Quantity {dimensionless}
  498.248,                                ! Material Cost {$}
  CostPerArea;                            ! Material Cost Units

OS:ComponentData,
  {e4fe6f63-87c1-48ee-8bc1-defd26328c32}, ! Handle
  Component Data 1,                       ! Name
  {ca5fdec3-7ce1-486c-a44d-37a2ca55215f}, ! UUID
  {b76b2097-7de5-4401-91c0-40c378046bc5}, ! Version UUID
  1363981314,                             ! Creation Timestamp
  1363981314,                             ! Version Timestamp
  {549d0b6d-ccd0-4512-b3c3-c52b0a313e08}, ! Name of Object 1
  {9c5607b4-8547-469a-a91b-01509af7e740}, ! Name of Object 2
  {94da8234-939a-48d6-9e64-9a96cb90cc31}; ! Name of Object 3

