
OS:Version,
  {25ebaadf-814c-4aee-ac2a-b74f73cf860d}, ! Handle
  0.9.3;                                  ! Version Identifier

OS:Material:NoMass,
  {3b836f57-c0a9-4632-8c38-350479da875b}, ! Handle
  CP02 CARPET PAD,                        ! Name
  VeryRough,                              ! Roughness
  0.21648,                                ! Thermal Resistance {m2-K/W}
  0.9,                                    ! Thermal Absorptance
  0.7,                                    ! Solar Absorptance
  0.8;                                    ! Visible Absorptance

OS:ComponentCost:LineItem,
  {27499b78-8368-4a9e-93c2-5d61abdb7670}, ! Handle
  Title 24-2008 Nonres 6 Ext Slab Unheated - 8in Slab with Carpet, ! Name
  ,                                       ! Type
  Construction,                           ! Line Item Type
  Title 24-2008 Nonres 6 Ext Slab Unheated - 8in Slab with Carpet, ! Item Name
  ,                                       ! Object End Use Key
  ,                                       ! Quantity {dimensionless}
  45.52,                                  ! Material Cost {$}
  CostPerArea;                            ! Material Cost Units

OS:Material,
  {62ef827c-aaf0-440a-8bec-de2965dc8e98}, ! Handle
  MAT-CC05 8 HW CONCRETE,                 ! Name
  Rough,                                  ! Roughness
  0.20321,                                ! Thickness {m}
  1.311,                                  ! Conductivity {W/m-K}
  2240,                                   ! Density {kg/m3}
  836.8,                                  ! Specific Heat {J/kg-K}
  0.9,                                    ! Thermal Absorptance
  0.7,                                    ! Solar Absorptance
  0.7;                                    ! Visible Absorptance

OS:Construction,
  {9140dad5-1839-43da-98ae-67eed2eaf71a}, ! Handle
  Title 24-2008 Nonres 6 Ext Slab Unheated - 8in Slab with Carpet, ! Name
  ,                                       ! Surface Rendering Name
  {62ef827c-aaf0-440a-8bec-de2965dc8e98}, ! Layer 1
  {3b836f57-c0a9-4632-8c38-350479da875b}; ! Layer 2

