
OS:Version,
  {b823fa18-1d10-4ace-adc3-c63b92e93144}, ! Handle
  0.9.3;                                  ! Version Identifier

OS:Construction,
  {bbae7250-cd31-4511-bec4-cc699bcf7dfc}, ! Handle
  Title 24-2008 Nonres 6 Ext Slab Unheated - 8in Slab with Carpet, ! Name
  ,                                       ! Surface Rendering Name
  {950dd442-711d-4ba2-9571-f7a9509472c1}, ! Layer 1
  {6becc449-5f67-429d-9fc7-e353b311e8cb}; ! Layer 2

OS:Material,
  {950dd442-711d-4ba2-9571-f7a9509472c1}, ! Handle
  MAT-CC05 8 HW CONCRETE,                 ! Name
  Rough,                                  ! Roughness
  0.20321,                                ! Thickness {m}
  1.311,                                  ! Conductivity {W/m-K}
  2240,                                   ! Density {kg/m3}
  836.8,                                  ! Specific Heat {J/kg-K}
  0.9,                                    ! Thermal Absorptance
  0.7,                                    ! Solar Absorptance
  0.7;                                    ! Visible Absorptance

OS:Material:NoMass,
  {6becc449-5f67-429d-9fc7-e353b311e8cb}, ! Handle
  CP02 CARPET PAD,                        ! Name
  VeryRough,                              ! Roughness
  0.21648,                                ! Thermal Resistance {m2-K/W}
  0.9,                                    ! Thermal Absorptance
  0.7,                                    ! Solar Absorptance
  0.8;                                    ! Visible Absorptance

OS:ComponentCost:LineItem,
  {7e56f5bd-f915-4022-9ca2-7caf579888a7}, ! Handle
  Title 24-2008 Nonres 6 Ext Slab Unheated - 8in Slab with Carpet, ! Name
  ,                                       ! Type
  Construction,                           ! Line Item Type
  Title 24-2008 Nonres 6 Ext Slab Unheated - 8in Slab with Carpet, ! Item Name
  ,                                       ! Object End Use Key
  ,                                       ! Quantity {dimensionless}
  45.52,                                  ! Material Cost {$}
  CostPerArea;                            ! Material Cost Units

OS:ComponentData,
  {f8ca5ccf-5a60-4934-b288-28884db3d672}, ! Handle
  Component Data 1,                       ! Name
  {2dce7057-be97-4126-8652-bb95be35892a}, ! UUID
  {bb32489a-0b24-44a7-9f71-15c2fd8106b4}, ! Version UUID
  1363982028,                             ! Creation Timestamp
  1363982028,                             ! Version Timestamp
  {bbae7250-cd31-4511-bec4-cc699bcf7dfc}, ! Name of Object 1
  {950dd442-711d-4ba2-9571-f7a9509472c1}, ! Name of Object 2
  {6becc449-5f67-429d-9fc7-e353b311e8cb}, ! Name of Object 3
  {7e56f5bd-f915-4022-9ca2-7caf579888a7}; ! Name of Object 4

