
OS:Version,
  {6a6a73af-2ae2-497f-87d0-1e8fa17071a3}, ! Handle
  0.9.3;                                  ! Version Identifier

OS:Construction,
  {33e5538a-64ea-4b37-a66b-e33d718f307b}, ! Handle
  90.1 Windows Window Fixed 2314 Brk-ClrMpr-Std-Clr, ! Name
  ,                                       ! Surface Rendering Name
  {fc1d4149-149e-495b-b645-05f3c5dff5bb}; ! Layer 1

OS:WindowMaterial:Glazing,
  {fc1d4149-149e-495b-b645-05f3c5dff5bb}, ! Handle
  Theoretical Glass [314],                ! Name
  SpectralAverage,                        ! Optical Data Type
  ,                                       ! Window Glass Spectral Data Set Name
  0.003,                                  ! Thickness {m}
  0.46245,                                ! Solar Transmittance at Normal Incidence
  0.48755,                                ! Front Side Solar Reflectance at Normal Incidence
  0.48755,                                ! Back Side Solar Reflectance at Normal Incidence
  0.429741,                               ! Visible Transmittance at Normal Incidence
  0.520259,                               ! Front Side Visible Reflectance at Normal Incidence
  0.520259,                               ! Back Side Visible Reflectance at Normal Incidence
  0,                                      ! Infrared Transmittance at Normal Incidence
  0.9,                                    ! Front Side Infrared Hemispherical Emissivity
  0.9,                                    ! Back Side Infrared Hemispherical Emissivity
  0.0236463;                              ! Conductivity {W/m-K}

OS:ComponentCost:LineItem,
  {43f2f7a1-ae22-42d8-bcd3-0ebd4a202fae}, ! Handle
  90.1 Windows Window Fixed 2314 Brk-ClrMpr-Std-Clr, ! Name
  ,                                       ! Type
  Construction,                           ! Line Item Type
  90.1 Windows Window Fixed 2314 Brk-ClrMpr-Std-Clr, ! Item Name
  ,                                       ! Object End Use Key
  ,                                       ! Quantity {dimensionless}
  0,                                      ! Material Cost {$}
  CostPerArea;                            ! Material Cost Units

