
OS:Version,
  {2f348103-84e9-4442-8d33-afd53372722f}, ! Handle
  0.9.3;                                  ! Version Identifier

OS:Construction,
  {88aa0568-6811-49da-9037-47a8344977ed}, ! Handle
  90.1 Windows Window Fixed 2314 Brk-ClrMpr-Std-Clr, ! Name
  ,                                       ! Surface Rendering Name
  {ea1772d1-c197-4601-bbad-b7786c4930f8}; ! Layer 1

OS:WindowMaterial:Glazing,
  {ea1772d1-c197-4601-bbad-b7786c4930f8}, ! Handle
  Theoretical Glass [314],                ! Name
  SpectralAverage,                        ! Optical Data Type
  ,                                       ! Window Glass Spectral Data Set Name
  0.003,                                  ! Thickness {m}
  0.46245,                                ! Solar Transmittance at Normal Incidence
  0.48755,                                ! Front Side Solar Reflectance at Normal Incidence
  0.48755,                                ! Back Side Solar Reflectance at Normal Incidence
  0.429741,                               ! Visible Transmittance at Normal Incidence
  0.520259,                               ! Front Side Visible Reflectance at Normal Incidence
  0.520259,                               ! Back Side Visible Reflectance at Normal Incidence
  0,                                      ! Infrared Transmittance at Normal Incidence
  0.9,                                    ! Front Side Infrared Hemispherical Emissivity
  0.9,                                    ! Back Side Infrared Hemispherical Emissivity
  0.0236463;                              ! Conductivity {W/m-K}

OS:ComponentCost:LineItem,
  {b8e6e1d0-36bc-4987-bff4-1646a2c533ee}, ! Handle
  90.1 Windows Window Fixed 2314 Brk-ClrMpr-Std-Clr, ! Name
  ,                                       ! Type
  Construction,                           ! Line Item Type
  90.1 Windows Window Fixed 2314 Brk-ClrMpr-Std-Clr, ! Item Name
  ,                                       ! Object End Use Key
  ,                                       ! Quantity {dimensionless}
  0,                                      ! Material Cost {$}
  CostPerArea;                            ! Material Cost Units

OS:ComponentData,
  {6600264e-9c74-4134-aac1-645eed7cee6e}, ! Handle
  Component Data 1,                       ! Name
  {0df58325-be96-4c03-b16e-91c4599ffdeb}, ! UUID
  {07082d31-dcc3-4a4b-ba09-9e2f98c6d1cd}, ! Version UUID
  1363981006,                             ! Creation Timestamp
  1363981006,                             ! Version Timestamp
  {88aa0568-6811-49da-9037-47a8344977ed}, ! Name of Object 1
  {ea1772d1-c197-4601-bbad-b7786c4930f8}, ! Name of Object 2
  {b8e6e1d0-36bc-4987-bff4-1646a2c533ee}; ! Name of Object 3

