
OS:Version,
  {8738e1a8-47d0-43ec-9db4-63ec14c051c1}, ! Handle
  0.9.3;                                  ! Version Identifier

OS:Material,
  {318f3d2c-45b0-4e5b-a1b0-f69e196f2be2}, ! Handle
  Metal Roofing,                          ! Name
  MediumSmooth,                           ! Roughness
  0.001524,                               ! Thickness {m}
  45.006,                                 ! Conductivity {W/m-K}
  7680,                                   ! Density {kg/m3}
  418.4,                                  ! Specific Heat {J/kg-K}
  0.9,                                    ! Thermal Absorptance
  0.7,                                    ! Solar Absorptance
  0.3;                                    ! Visible Absorptance

OS:ComponentCost:LineItem,
  {ef0c90c7-05e0-4cb1-a3b4-6c00d95d2261}, ! Handle
  90.1-2007 Res 6B Roof Metal Building,   ! Name
  ,                                       ! Type
  Construction,                           ! Line Item Type
  90.1-2007 Res 6B Roof Metal Building,   ! Item Name
  ,                                       ! Object End Use Key
  ,                                       ! Quantity {dimensionless}
  38.21,                                  ! Material Cost {$}
  CostPerArea;                            ! Material Cost Units

OS:Construction,
  {0260f371-517b-4f02-bea4-ddd8e07a1ad7}, ! Handle
  90.1-2007 Res 6B Roof Metal Building,   ! Name
  ,                                       ! Surface Rendering Name
  {318f3d2c-45b0-4e5b-a1b0-f69e196f2be2}, ! Layer 1
  {80cdf74a-51e8-4fbd-b526-29e418e9a0dd}; ! Layer 2

OS:Material,
  {80cdf74a-51e8-4fbd-b526-29e418e9a0dd}, ! Handle
  Roof Insulation [15],                   ! Name
  MediumRough,                            ! Roughness
  0.123565,                               ! Thickness {m}
  0.049,                                  ! Conductivity {W/m-K}
  265,                                    ! Density {kg/m3}
  836.8,                                  ! Specific Heat {J/kg-K}
  0.9,                                    ! Thermal Absorptance
  0.7,                                    ! Solar Absorptance
  0.7;                                    ! Visible Absorptance

