
OS:Version,
  {7857f1c8-40a9-45af-85dd-8972d135b172}, ! Handle
  0.9.3;                                  ! Version Identifier

OS:Construction,
  {56aa67f7-e3ed-4752-afd9-bcfcb9799923}, ! Handle
  90.1-2007 Res 8A Skylight without Curb, ! Name
  ,                                       ! Surface Rendering Name
  {1a351480-52c5-4f26-b737-d5e21b1b1d6d}; ! Layer 1

OS:WindowMaterial:Glazing,
  {1a351480-52c5-4f26-b737-d5e21b1b1d6d}, ! Handle
  Theoretical Glass [194],                ! Name
  SpectralAverage,                        ! Optical Data Type
  ,                                       ! Window Glass Spectral Data Set Name
  0.003,                                  ! Thickness {m}
  0.762358,                               ! Solar Transmittance at Normal Incidence
  0.187642,                               ! Front Side Solar Reflectance at Normal Incidence
  0.187642,                               ! Back Side Solar Reflectance at Normal Incidence
  0.770141,                               ! Visible Transmittance at Normal Incidence
  0.179859,                               ! Front Side Visible Reflectance at Normal Incidence
  0.179859,                               ! Back Side Visible Reflectance at Normal Incidence
  0,                                      ! Infrared Transmittance at Normal Incidence
  0.9,                                    ! Front Side Infrared Hemispherical Emissivity
  0.9,                                    ! Back Side Infrared Hemispherical Emissivity
  0.0205405;                              ! Conductivity {W/m-K}

OS:ComponentData,
  {f466d13d-d42b-4348-a1f9-6359355103d3}, ! Handle
  Component Data 1,                       ! Name
  {0e372ee0-26ea-410a-8f5b-7b19b5bd6a7c}, ! UUID
  {6671fcf6-5608-4d38-8d5e-3eb453a964e3}, ! Version UUID
  1363981880,                             ! Creation Timestamp
  1363981880,                             ! Version Timestamp
  {56aa67f7-e3ed-4752-afd9-bcfcb9799923}, ! Name of Object 1
  {1a351480-52c5-4f26-b737-d5e21b1b1d6d}; ! Name of Object 2

