
OS:Version,
  {854ecd1b-8a8c-4c7a-9b29-7d0a5acae775}, ! Handle
  0.9.3;                                  ! Version Identifier

OS:Construction,
  {e139e4cf-4b62-497b-aeae-761334939a63}, ! Handle
  90.1-2007 Res 8A Skylight without Curb, ! Name
  ,                                       ! Surface Rendering Name
  {96437e0d-12a3-403e-b6d7-fcf112415773}; ! Layer 1

OS:WindowMaterial:Glazing,
  {96437e0d-12a3-403e-b6d7-fcf112415773}, ! Handle
  Theoretical Glass [194],                ! Name
  SpectralAverage,                        ! Optical Data Type
  ,                                       ! Window Glass Spectral Data Set Name
  0.003,                                  ! Thickness {m}
  0.762358,                               ! Solar Transmittance at Normal Incidence
  0.187642,                               ! Front Side Solar Reflectance at Normal Incidence
  0.187642,                               ! Back Side Solar Reflectance at Normal Incidence
  0.770141,                               ! Visible Transmittance at Normal Incidence
  0.179859,                               ! Front Side Visible Reflectance at Normal Incidence
  0.179859,                               ! Back Side Visible Reflectance at Normal Incidence
  0,                                      ! Infrared Transmittance at Normal Incidence
  0.9,                                    ! Front Side Infrared Hemispherical Emissivity
  0.9,                                    ! Back Side Infrared Hemispherical Emissivity
  0.0205405;                              ! Conductivity {W/m-K}

