
OS:Version,
  {4eebcf3a-732c-481b-b5c0-8e09ed8be21a}, ! Handle
  0.9.3;                                  ! Version Identifier

OS:Material,
  {13979f4f-87dc-4fd6-bce5-1e04317082dc}, ! Handle
  Roof Membrane [2],                      ! Name
  VeryRough,                              ! Roughness
  0.0095,                                 ! Thickness {m}
  0.16,                                   ! Conductivity {W/m-K}
  1121.29,                                ! Density {kg/m3}
  1460,                                   ! Specific Heat {J/kg-K}
  0.9,                                    ! Thermal Absorptance
  0.7,                                    ! Solar Absorptance
  0.85;                                   ! Visible Absorptance

OS:Material,
  {ca18f311-4b76-4b0e-8d06-a8a29adf1359}, ! Handle
  Metal Decking,                          ! Name
  MediumSmooth,                           ! Roughness
  0.001524,                               ! Thickness {m}
  45.006,                                 ! Conductivity {W/m-K}
  7680,                                   ! Density {kg/m3}
  418.4,                                  ! Specific Heat {J/kg-K}
  0.9,                                    ! Thermal Absorptance
  0.7,                                    ! Solar Absorptance
  0.3;                                    ! Visible Absorptance

OS:Construction,
  {54ce9953-5779-40a4-9a81-7073eec74281}, ! Handle
  Title 24-2008 Nonres 12 Roof IEAD,      ! Name
  ,                                       ! Surface Rendering Name
  {13979f4f-87dc-4fd6-bce5-1e04317082dc}, ! Layer 1
  {918d827f-05e5-499e-8908-72c2eb6be9d8}, ! Layer 2
  {ca18f311-4b76-4b0e-8d06-a8a29adf1359}; ! Layer 3

OS:Material,
  {918d827f-05e5-499e-8908-72c2eb6be9d8}, ! Handle
  Roof Insulation [31],                   ! Name
  MediumRough,                            ! Roughness
  0.209546,                               ! Thickness {m}
  0.049,                                  ! Conductivity {W/m-K}
  265,                                    ! Density {kg/m3}
  836.8,                                  ! Specific Heat {J/kg-K}
  0.9,                                    ! Thermal Absorptance
  0.7,                                    ! Solar Absorptance
  0.7;                                    ! Visible Absorptance

OS:ComponentCost:LineItem,
  {64a29cfd-c294-44f6-9a4e-b5bf73fb5ea3}, ! Handle
  Title 24-2008 Nonres 12 Roof IEAD,      ! Name
  ,                                       ! Type
  Construction,                           ! Line Item Type
  Title 24-2008 Nonres 12 Roof IEAD,      ! Item Name
  ,                                       ! Object End Use Key
  ,                                       ! Quantity {dimensionless}
  56.579,                                 ! Material Cost {$}
  CostPerArea;                            ! Material Cost Units

