
OS:Version,
  {a6f9c4d4-cef4-11e7-abc4-cec278b6b50a}, !- Handle
  1.14.0;                                 !- Version Identifier

OS:Material,
  {a6f9c7ea-cef4-11e7-abc4-cec278b6b50a}, ! Handle
   Gips-Kalk Innenputz 1.5cm,              ! Name
  Smooth,                                 ! Roughness
  0.015,                                  ! Thickness {m}
  0.7,                                    ! Conductivity {W/m-K}
  1100,                                   ! Density {kg/m3}
  1010,                                   ! Specific Heat {J/kg-K}
  0.3,                                    ! Thermal Absorptance
  0.3,                                    ! Solar Absorptance
  0.3;                                    ! Visible Absorptance

OS:Material,
  {a6f9cf9c-cef4-11e7-abc4-cec278b6b50a}, ! Handle
  Vollziegel 51cm,                        ! Name
  Smooth,                                 ! Roughness
  0.51,                                   ! Thickness {m}
  0.81,                                   ! Conductivity {W/m-K}
  1800,                                   ! Density {kg/m3}
  1000,                                   ! Specific Heat {J/kg-K}
  0.7,                                    ! Thermal Absorptance
  0.7,                                    ! Solar Absorptance
  0.7;                                    ! Visible Absorptance

OS:Construction,
  {a6f9cbaa-cef4-11e7-abc4-cec278b6b50a}, ! Handle
  U-W DE MFH ExtWall -1918 3,             ! Name
  ,                                       ! Surface Rendering Name
  {a6f9cc86-cef4-11e7-abc4-cec278b6b50a}, ! Layer 1
  {a6f9cf9c-cef4-11e7-abc4-cec278b6b50a}, ! Layer 2
  {a6f9c7ea-cef4-11e7-abc4-cec278b6b50a}; ! Layer 3

OS:Material,
  {a6f9cc86-cef4-11e7-abc4-cec278b6b50a}, ! Handle
  Kalkputz 2cm,                           ! Name
  Smooth,                                 ! Roughness
  0.02,                                   ! Thickness {m}
  0.87,                                   ! Conductivity {W/m-K}
  1400,                                   ! Density {kg/m3}
  1010,                                   ! Specific Heat {J/kg-K}
  0.3,                                    ! Thermal Absorptance
  0.3,                                    ! Solar Absorptance
  0.3;                                    ! Visible Absorptance

