
OS:Version,
  {7cd022a9-87a3-4e8e-b7f7-a67dd9f5b9dc}, ! Handle
  0.9.3;                                  ! Version Identifier

OS:Material,
  {1d4a0c53-c986-4d6a-a3f6-d7ce41298dd1}, ! Handle
  1/2IN Gypsum,                           ! Name
  Smooth,                                 ! Roughness
  0.01271,                                ! Thickness {m}
  0.16,                                   ! Conductivity {W/m-K}
  784.9,                                  ! Density {kg/m3}
  830,                                    ! Specific Heat {J/kg-K}
  0.9,                                    ! Thermal Absorptance
  0.92,                                   ! Solar Absorptance
  0.92;                                   ! Visible Absorptance

OS:Construction,
  {ccb77954-bf9e-4997-a040-77f448b582e3}, ! Handle
  90.1-2007 Res 7A Ext Wall Wood-Framed and Other, ! Name
  ,                                       ! Surface Rendering Name
  {db50b0f3-54da-4c12-acaa-1446d83c407e}, ! Layer 1
  {6cbe493a-9cba-47fc-ab8f-f08db82a0762}, ! Layer 2
  {1d4a0c53-c986-4d6a-a3f6-d7ce41298dd1}; ! Layer 3

OS:Material,
  {db50b0f3-54da-4c12-acaa-1446d83c407e}, ! Handle
  Wood Siding,                            ! Name
  MediumSmooth,                           ! Roughness
  0.01,                                   ! Thickness {m}
  0.11,                                   ! Conductivity {W/m-K}
  544.62,                                 ! Density {kg/m3}
  1210,                                   ! Specific Heat {J/kg-K}
  0.9,                                    ! Thermal Absorptance
  0.78,                                   ! Solar Absorptance
  0.78;                                   ! Visible Absorptance

OS:Material,
  {6cbe493a-9cba-47fc-ab8f-f08db82a0762}, ! Handle
  Wall Insulation [13],                   ! Name
  MediumRough,                            ! Roughness
  0.140713,                               ! Thickness {m}
  0.045,                                  ! Conductivity {W/m-K}
  265,                                    ! Density {kg/m3}
  836.8,                                  ! Specific Heat {J/kg-K}
  0.9,                                    ! Thermal Absorptance
  0.7,                                    ! Solar Absorptance
  0.7;                                    ! Visible Absorptance

OS:ComponentCost:LineItem,
  {94d5a635-53fc-4212-a33f-6f792e8b81b6}, ! Handle
  90.1-2007 Res 7A Ext Wall Wood-Framed and Other, ! Name
  ,                                       ! Type
  Construction,                           ! Line Item Type
  90.1-2007 Res 7A Ext Wall Wood-Framed and Other, ! Item Name
  ,                                       ! Object End Use Key
  ,                                       ! Quantity {dimensionless}
  80.638,                                 ! Material Cost {$}
  CostPerArea;                            ! Material Cost Units

