
OS:Version,
  {2b230336-9cbf-4fc1-a71f-bdc4f3ad374d}, ! Handle
  0.9.3;                                  ! Version Identifier

OS:Material,
  {28c90ebe-98e1-4f84-8e24-2ae25d0e98b9}, ! Handle
  1IN Wood Decking,                       ! Name
  MediumSmooth,                           ! Roughness
  0.0254,                                 ! Thickness {m}
  0.1211,                                 ! Conductivity {W/m-K}
  593,                                    ! Density {kg/m3}
  2510,                                   ! Specific Heat {J/kg-K}
  0.9,                                    ! Thermal Absorptance
  0.78,                                   ! Solar Absorptance
  0.78;                                   ! Visible Absorptance

OS:Material,
  {27be9a44-4618-49ce-b57b-daaae61b0f83}, ! Handle
  Wood Shingles [1],                      ! Name
  VeryRough,                              ! Roughness
  0.0178,                                 ! Thickness {m}
  0.115,                                  ! Conductivity {W/m-K}
  513,                                    ! Density {kg/m3}
  1255,                                   ! Specific Heat {J/kg-K}
  0.9,                                    ! Thermal Absorptance
  0.78,                                   ! Solar Absorptance
  0.85;                                   ! Visible Absorptance

OS:Material,
  {c456572b-bd40-4809-8320-19d06ed6b689}, ! Handle
  Roof Insulation [106],                  ! Name
  MediumRough,                            ! Roughness
  0.190659,                               ! Thickness {m}
  0.049,                                  ! Conductivity {W/m-K}
  265,                                    ! Density {kg/m3}
  836.8,                                  ! Specific Heat {J/kg-K}
  0.9,                                    ! Thermal Absorptance
  0.7,                                    ! Solar Absorptance
  0.7;                                    ! Visible Absorptance

OS:Construction,
  {1de27e1e-ca2d-4f45-96c5-ce6d4bf625df}, ! Handle
  Title 24-2008 Nonres 14 Roof Attic and Other, ! Name
  ,                                       ! Surface Rendering Name
  {27be9a44-4618-49ce-b57b-daaae61b0f83}, ! Layer 1
  {28c90ebe-98e1-4f84-8e24-2ae25d0e98b9}, ! Layer 2
  {c456572b-bd40-4809-8320-19d06ed6b689}, ! Layer 3
  {57f71aa2-f458-4e22-9ef4-0e4ab8544349}; ! Layer 4

OS:Material,
  {57f71aa2-f458-4e22-9ef4-0e4ab8544349}, ! Handle
  1/2IN Gypsum,                           ! Name
  Smooth,                                 ! Roughness
  0.01271,                                ! Thickness {m}
  0.16,                                   ! Conductivity {W/m-K}
  784.9,                                  ! Density {kg/m3}
  830,                                    ! Specific Heat {J/kg-K}
  0.9,                                    ! Thermal Absorptance
  0.92,                                   ! Solar Absorptance
  0.92;                                   ! Visible Absorptance

OS:ComponentCost:LineItem,
  {aac59e96-9c7d-4d9f-ba58-833a75ae854d}, ! Handle
  Title 24-2008 Nonres 14 Roof Attic and Other, ! Name
  ,                                       ! Type
  Construction,                           ! Line Item Type
  Title 24-2008 Nonres 14 Roof Attic and Other, ! Item Name
  ,                                       ! Object End Use Key
  ,                                       ! Quantity {dimensionless}
  33.009,                                 ! Material Cost {$}
  CostPerArea;                            ! Material Cost Units

