
OS:Version,
  {6b6682c1-3cff-43db-9ab4-f11148accf51}, ! Handle
  0.9.3;                                  ! Version Identifier

OS:Material,
  {7a6eca03-a1c1-46cb-831e-1d4dde8d2176}, ! Handle
  MAT-CC05 4 HW CONCRETE,                 ! Name
  Rough,                                  ! Roughness
  0.1016,                                 ! Thickness {m}
  1.311,                                  ! Conductivity {W/m-K}
  2240,                                   ! Density {kg/m3}
  836.8,                                  ! Specific Heat {J/kg-K}
  0.9,                                    ! Thermal Absorptance
  0.7,                                    ! Solar Absorptance
  0.7;                                    ! Visible Absorptance

OS:Construction,
  {f2ee3daa-3af1-47fb-b77b-41f486acc855}, ! Handle
  90.1-2001 Res B13 Ext Slab Unheated - 4in Slab without Carpet, ! Name
  ,                                       ! Surface Rendering Name
  {7a6eca03-a1c1-46cb-831e-1d4dde8d2176}; ! Layer 1

OS:ComponentCost:LineItem,
  {9532c489-5d0a-4f6d-953b-bc999772a342}, ! Handle
  90.1-2001 Res B13 Ext Slab Unheated - 4in Slab without Carpet, ! Name
  ,                                       ! Type
  Construction,                           ! Line Item Type
  90.1-2001 Res B13 Ext Slab Unheated - 4in Slab without Carpet, ! Item Name
  ,                                       ! Object End Use Key
  ,                                       ! Quantity {dimensionless}
  45.52,                                  ! Material Cost {$}
  CostPerArea;                            ! Material Cost Units

