
OS:Version,
  {f354d37f-2e9f-4735-8fdb-946aa2549cac}, ! Handle
  0.9.3;                                  ! Version Identifier

OS:Construction,
  {d08188f5-0c5c-40b7-80d8-8c7480b12979}, ! Handle
  90.1-1999 Nonres B20 Ext Slab Unheated - 8in Slab with Carpet, ! Name
  ,                                       ! Surface Rendering Name
  {fa496029-b41b-44f5-8ad1-57dbb96288f7}, ! Layer 1
  {bb0541eb-6af7-48f9-8c35-7a5fcefc4182}; ! Layer 2

OS:Material,
  {fa496029-b41b-44f5-8ad1-57dbb96288f7}, ! Handle
  MAT-CC05 8 HW CONCRETE,                 ! Name
  Rough,                                  ! Roughness
  0.20321,                                ! Thickness {m}
  1.311,                                  ! Conductivity {W/m-K}
  2240,                                   ! Density {kg/m3}
  836.8,                                  ! Specific Heat {J/kg-K}
  0.9,                                    ! Thermal Absorptance
  0.7,                                    ! Solar Absorptance
  0.7;                                    ! Visible Absorptance

OS:Material:NoMass,
  {bb0541eb-6af7-48f9-8c35-7a5fcefc4182}, ! Handle
  CP02 CARPET PAD,                        ! Name
  VeryRough,                              ! Roughness
  0.21648,                                ! Thermal Resistance {m2-K/W}
  0.9,                                    ! Thermal Absorptance
  0.7,                                    ! Solar Absorptance
  0.8;                                    ! Visible Absorptance

OS:ComponentCost:LineItem,
  {85826860-0440-4e24-85f6-d7f7be545ac6}, ! Handle
  90.1-1999 Nonres B20 Ext Slab Unheated - 8in Slab with Carpet, ! Name
  ,                                       ! Type
  Construction,                           ! Line Item Type
  90.1-1999 Nonres B20 Ext Slab Unheated - 8in Slab with Carpet, ! Item Name
  ,                                       ! Object End Use Key
  ,                                       ! Quantity {dimensionless}
  45.52,                                  ! Material Cost {$}
  CostPerArea;                            ! Material Cost Units

