
OS:Version,
  {7f1b14a1-ede0-4b61-9822-f802ae00d498}, ! Handle
  0.9.3;                                  ! Version Identifier

OS:Construction,
  {0f7d9d1b-7a2a-42af-abba-156069177bbc}, ! Handle
  90.1 Constructions Roof IEAD R-25.0 ci, ! Name
  ,                                       ! Surface Rendering Name
  {de896f18-9da8-4918-8933-7766b4288292}, ! Layer 1
  {5fccf47d-0f94-4462-9dc7-22a5f3a0c3cd}, ! Layer 2
  {8f82c888-796a-4ab5-99d0-bbe6b6fd970f}; ! Layer 3

OS:Material,
  {de896f18-9da8-4918-8933-7766b4288292}, ! Handle
  BUILT UP ROOFING 3/8 IN,                ! Name
  VeryRough,                              ! Roughness
  0.0095,                                 ! Thickness {m}
  0.16,                                   ! Conductivity {W/m-K}
  1121.29,                                ! Density {kg/m3}
  1460,                                   ! Specific Heat {J/kg-K}
  0.9,                                    ! Thermal Absorptance
  0.7,                                    ! Solar Absorptance
  0.7;                                    ! Visible Absorptance

OS:Material,
  {5fccf47d-0f94-4462-9dc7-22a5f3a0c3cd}, ! Handle
  Roof Insulation [72],                   ! Name
  MediumRough,                            ! Roughness
  0.210212,                               ! Thickness {m}
  0.049,                                  ! Conductivity {W/m-K}
  265,                                    ! Density {kg/m3}
  836.8,                                  ! Specific Heat {J/kg-K}
  0.9,                                    ! Thermal Absorptance
  0.7,                                    ! Solar Absorptance
  0.7;                                    ! Visible Absorptance

OS:Material,
  {8f82c888-796a-4ab5-99d0-bbe6b6fd970f}, ! Handle
  MAT-METAL,                              ! Name
  MediumSmooth,                           ! Roughness
  0.001524,                               ! Thickness {m}
  45.006,                                 ! Conductivity {W/m-K}
  7680,                                   ! Density {kg/m3}
  418.4,                                  ! Specific Heat {J/kg-K}
  0.9,                                    ! Thermal Absorptance
  0.7,                                    ! Solar Absorptance
  0.3;                                    ! Visible Absorptance

OS:ComponentCost:LineItem,
  {15c1d5de-7418-4f3d-b856-01a4efacf8d4}, ! Handle
  90.1 Constructions Roof IEAD R-25.0 ci, ! Name
  ,                                       ! Type
  Construction,                           ! Line Item Type
  90.1 Constructions Roof IEAD R-25.0 ci, ! Item Name
  ,                                       ! Object End Use Key
  ,                                       ! Quantity {dimensionless}
  56.625,                                 ! Material Cost {$}
  CostPerArea;                            ! Material Cost Units

