
OS:Version,
  {77258479-0078-47d0-a629-a7e6c8ff0586}, ! Handle
  0.9.3;                                  ! Version Identifier

OS:Construction,
  {37105837-8336-4bda-9e51-32d1c28202f7}, ! Handle
  Title 24-2008 Nonres 11 Ext Wall Mass,  ! Name
  ,                                       ! Surface Rendering Name
  {c5698c45-dc6f-49ad-a80e-5558873cf530}, ! Layer 1
  {cb22ff3c-6f61-49ab-bc1b-16e931606d8c}, ! Layer 2
  {70ee6fab-fe9e-40ce-8ca4-4042874c2788}, ! Layer 3
  {1dd81b40-c906-4be6-b47d-2839ffe9b5a3}; ! Layer 4

OS:Material,
  {c5698c45-dc6f-49ad-a80e-5558873cf530}, ! Handle
  1IN Stucco,                             ! Name
  Smooth,                                 ! Roughness
  0.0253,                                 ! Thickness {m}
  0.6918,                                 ! Conductivity {W/m-K}
  1858,                                   ! Density {kg/m3}
  837,                                    ! Specific Heat {J/kg-K}
  0.9,                                    ! Thermal Absorptance
  0.92,                                   ! Solar Absorptance
  0.92;                                   ! Visible Absorptance

OS:Material,
  {cb22ff3c-6f61-49ab-bc1b-16e931606d8c}, ! Handle
  8IN Concrete HW,                        ! Name
  MediumRough,                            ! Roughness
  0.2033,                                 ! Thickness {m}
  1.7296,                                 ! Conductivity {W/m-K}
  2243,                                   ! Density {kg/m3}
  837,                                    ! Specific Heat {J/kg-K}
  0.9,                                    ! Thermal Absorptance
  0.65,                                   ! Solar Absorptance
  0.65;                                   ! Visible Absorptance

OS:Material,
  {70ee6fab-fe9e-40ce-8ca4-4042874c2788}, ! Handle
  Wall Insulation [158],                  ! Name
  MediumRough,                            ! Roughness
  0.0509,                                 ! Thickness {m}
  0.0432,                                 ! Conductivity {W/m-K}
  91,                                     ! Density {kg/m3}
  837,                                    ! Specific Heat {J/kg-K}
  0.9,                                    ! Thermal Absorptance
  0.5,                                    ! Solar Absorptance
  0.5;                                    ! Visible Absorptance

OS:Material,
  {1dd81b40-c906-4be6-b47d-2839ffe9b5a3}, ! Handle
  1/2IN Gypsum,                           ! Name
  Smooth,                                 ! Roughness
  0.01271,                                ! Thickness {m}
  0.16,                                   ! Conductivity {W/m-K}
  784.9,                                  ! Density {kg/m3}
  830,                                    ! Specific Heat {J/kg-K}
  0.9,                                    ! Thermal Absorptance
  0.92,                                   ! Solar Absorptance
  0.92;                                   ! Visible Absorptance

OS:ComponentCost:LineItem,
  {b71e7080-799d-4cd0-b0c8-8dd19046c970}, ! Handle
  Title 24-2008 Nonres 11 Ext Wall Mass,  ! Name
  ,                                       ! Type
  Construction,                           ! Line Item Type
  Title 24-2008 Nonres 11 Ext Wall Mass,  ! Item Name
  ,                                       ! Object End Use Key
  ,                                       ! Quantity {dimensionless}
  211.895,                                ! Material Cost {$}
  CostPerArea;                            ! Material Cost Units

