
OS:Version,
  {5840ef69-4088-4499-9d58-034a3a23f404}, ! Handle
  0.9.3;                                  ! Version Identifier

OS:Material,
  {22b88ecb-2f0a-43fa-9bbd-cd1a2485b496}, ! Handle
  1/2IN Gypsum,                           ! Name
  Smooth,                                 ! Roughness
  0.01271,                                ! Thickness {m}
  0.16,                                   ! Conductivity {W/m-K}
  784.9,                                  ! Density {kg/m3}
  830,                                    ! Specific Heat {J/kg-K}
  0.9,                                    ! Thermal Absorptance
  0.92,                                   ! Solar Absorptance
  0.92;                                   ! Visible Absorptance

OS:Material,
  {c913c986-56e8-4304-808e-965106c0a7da}, ! Handle
  Wall Insulation [34],                   ! Name
  MediumRough,                            ! Roughness
  0.110422,                               ! Thickness {m}
  0.045,                                  ! Conductivity {W/m-K}
  265,                                    ! Density {kg/m3}
  836.8,                                  ! Specific Heat {J/kg-K}
  0.9,                                    ! Thermal Absorptance
  0.7,                                    ! Solar Absorptance
  0.7;                                    ! Visible Absorptance

OS:Construction,
  {51bd3291-7a17-4056-affc-53b2ed574bfe}, ! Handle
  189.1-2009 Res 2A Ext Wall Wood-Framed and Other, ! Name
  ,                                       ! Surface Rendering Name
  {1211ea58-4cb2-4308-aca1-b5943587fbff}, ! Layer 1
  {c913c986-56e8-4304-808e-965106c0a7da}, ! Layer 2
  {22b88ecb-2f0a-43fa-9bbd-cd1a2485b496}; ! Layer 3

OS:Material,
  {1211ea58-4cb2-4308-aca1-b5943587fbff}, ! Handle
  Wood Siding,                            ! Name
  MediumSmooth,                           ! Roughness
  0.01,                                   ! Thickness {m}
  0.11,                                   ! Conductivity {W/m-K}
  544.62,                                 ! Density {kg/m3}
  1210,                                   ! Specific Heat {J/kg-K}
  0.9,                                    ! Thermal Absorptance
  0.78,                                   ! Solar Absorptance
  0.78;                                   ! Visible Absorptance

OS:ComponentCost:LineItem,
  {4138f28b-3bac-46f1-b21f-bed701a4c89f}, ! Handle
  189.1-2009 Res 2A Ext Wall Wood-Framed and Other, ! Name
  ,                                       ! Type
  Construction,                           ! Line Item Type
  189.1-2009 Res 2A Ext Wall Wood-Framed and Other, ! Item Name
  ,                                       ! Object End Use Key
  ,                                       ! Quantity {dimensionless}
  77.743,                                 ! Material Cost {$}
  CostPerArea;                            ! Material Cost Units

