
OS:Version,
  {f692d6d0-2a08-4208-b844-a030282f0ca5}, ! Handle
  0.9.3;                                  ! Version Identifier

OS:Construction,
  {f3d7fa93-2cd6-4de8-8984-0fbdab189419}, ! Handle
  189.1-2009 Res 2A Ext Wall Wood-Framed and Other, ! Name
  ,                                       ! Surface Rendering Name
  {113ac6c0-358d-470a-84c1-7af488be3971}, ! Layer 1
  {b6f2e38d-5a0e-441b-ab8c-9c8d86acd523}, ! Layer 2
  {90ddcc56-1f1e-4d00-a5b5-23e5b3964fec}; ! Layer 3

OS:Material,
  {113ac6c0-358d-470a-84c1-7af488be3971}, ! Handle
  Wood Siding,                            ! Name
  MediumSmooth,                           ! Roughness
  0.01,                                   ! Thickness {m}
  0.11,                                   ! Conductivity {W/m-K}
  544.62,                                 ! Density {kg/m3}
  1210,                                   ! Specific Heat {J/kg-K}
  0.9,                                    ! Thermal Absorptance
  0.78,                                   ! Solar Absorptance
  0.78;                                   ! Visible Absorptance

OS:Material,
  {b6f2e38d-5a0e-441b-ab8c-9c8d86acd523}, ! Handle
  Wall Insulation [34],                   ! Name
  MediumRough,                            ! Roughness
  0.110422,                               ! Thickness {m}
  0.045,                                  ! Conductivity {W/m-K}
  265,                                    ! Density {kg/m3}
  836.8,                                  ! Specific Heat {J/kg-K}
  0.9,                                    ! Thermal Absorptance
  0.7,                                    ! Solar Absorptance
  0.7;                                    ! Visible Absorptance

OS:Material,
  {90ddcc56-1f1e-4d00-a5b5-23e5b3964fec}, ! Handle
  1/2IN Gypsum,                           ! Name
  Smooth,                                 ! Roughness
  0.01271,                                ! Thickness {m}
  0.16,                                   ! Conductivity {W/m-K}
  784.9,                                  ! Density {kg/m3}
  830,                                    ! Specific Heat {J/kg-K}
  0.9,                                    ! Thermal Absorptance
  0.92,                                   ! Solar Absorptance
  0.92;                                   ! Visible Absorptance

OS:ComponentCost:LineItem,
  {61dfb8a6-e4a5-40bb-b239-84196cdc7d05}, ! Handle
  189.1-2009 Res 2A Ext Wall Wood-Framed and Other, ! Name
  ,                                       ! Type
  Construction,                           ! Line Item Type
  189.1-2009 Res 2A Ext Wall Wood-Framed and Other, ! Item Name
  ,                                       ! Object End Use Key
  ,                                       ! Quantity {dimensionless}
  77.743,                                 ! Material Cost {$}
  CostPerArea;                            ! Material Cost Units

OS:ComponentData,
  {4aaf4ce0-cfb5-455a-bdfc-b2ebe3375fbf}, ! Handle
  Component Data 1,                       ! Name
  {4acfa9b5-ab59-45ed-870c-8bb673c0420f}, ! UUID
  {f9f8a6ab-990c-4cb8-9bb8-c5c72bc2c6f4}, ! Version UUID
  1363980963,                             ! Creation Timestamp
  1363980963,                             ! Version Timestamp
  {f3d7fa93-2cd6-4de8-8984-0fbdab189419}, ! Name of Object 1
  {113ac6c0-358d-470a-84c1-7af488be3971}, ! Name of Object 2
  {b6f2e38d-5a0e-441b-ab8c-9c8d86acd523}, ! Name of Object 3
  {90ddcc56-1f1e-4d00-a5b5-23e5b3964fec}, ! Name of Object 4
  {61dfb8a6-e4a5-40bb-b239-84196cdc7d05}; ! Name of Object 5

