
OS:Version,
  {721281df-fd0b-456c-abdd-7487584af621}, ! Handle
  0.9.3;                                  ! Version Identifier

OS:Material,
  {369786ca-18b3-422a-9c35-1f6755281fc1}, ! Handle
  Roof Insulation,                        ! Name
  MediumRough,                            ! Roughness
  0.124958,                               ! Thickness {m}
  0.049,                                  ! Conductivity {W/m-K}
  265,                                    ! Density {kg/m3}
  836.8,                                  ! Specific Heat {J/kg-K}
  0.9,                                    ! Thermal Absorptance
  0.7,                                    ! Solar Absorptance
  0.7;                                    ! Visible Absorptance

OS:Material,
  {3cb371e9-fd1c-4d71-9e6b-d575110e28e1}, ! Handle
  Metal Decking,                          ! Name
  MediumSmooth,                           ! Roughness
  0.001524,                               ! Thickness {m}
  45.006,                                 ! Conductivity {W/m-K}
  7680,                                   ! Density {kg/m3}
  418.4,                                  ! Specific Heat {J/kg-K}
  0.9,                                    ! Thermal Absorptance
  0.7,                                    ! Solar Absorptance
  0.3;                                    ! Visible Absorptance

OS:ComponentCost:LineItem,
  {de9d6bff-4f7d-4009-867d-3cf613bea4c1}, ! Handle
  90.1-1999 Res B19 Roof IEAD,            ! Name
  ,                                       ! Type
  Construction,                           ! Line Item Type
  90.1-1999 Res B19 Roof IEAD,            ! Item Name
  ,                                       ! Object End Use Key
  ,                                       ! Quantity {dimensionless}
  49.208,                                 ! Material Cost {$}
  CostPerArea;                            ! Material Cost Units

OS:Construction,
  {2e433533-5b1f-425d-b80f-8f70aac90bf9}, ! Handle
  90.1-1999 Res B19 Roof IEAD,            ! Name
  ,                                       ! Surface Rendering Name
  {8ce91086-b6ae-4142-b029-bd7631ac45c1}, ! Layer 1
  {369786ca-18b3-422a-9c35-1f6755281fc1}, ! Layer 2
  {3cb371e9-fd1c-4d71-9e6b-d575110e28e1}; ! Layer 3

OS:Material,
  {8ce91086-b6ae-4142-b029-bd7631ac45c1}, ! Handle
  Roof Membrane,                          ! Name
  VeryRough,                              ! Roughness
  0.0095,                                 ! Thickness {m}
  0.16,                                   ! Conductivity {W/m-K}
  1121.29,                                ! Density {kg/m3}
  1460,                                   ! Specific Heat {J/kg-K}
  0.9,                                    ! Thermal Absorptance
  0.7,                                    ! Solar Absorptance
  0.7;                                    ! Visible Absorptance

