
OS:Version,
  {272ea42a-512f-435d-8179-7498dcdf658a}, ! Handle
  0.9.3;                                  ! Version Identifier

OS:ComponentCost:LineItem,
  {ddda389c-1f87-4e37-a43b-a1d6281cad40}, ! Handle
  Title 24-2008 Nonres 11 Attic Floor,    ! Name
  ,                                       ! Type
  Construction,                           ! Line Item Type
  Title 24-2008 Nonres 11 Attic Floor,    ! Item Name
  ,                                       ! Object End Use Key
  ,                                       ! Quantity {dimensionless}
  33.117,                                 ! Material Cost {$}
  CostPerArea;                            ! Material Cost Units

OS:Material,
  {a4a6d8bc-768d-4b71-81f2-d242633a0e94}, ! Handle
  1/2IN Gypsum Bottom,                    ! Name
  Smooth,                                 ! Roughness
  0.01271,                                ! Thickness {m}
  0.16,                                   ! Conductivity {W/m-K}
  784.9,                                  ! Density {kg/m3}
  830,                                    ! Specific Heat {J/kg-K}
  0.9,                                    ! Thermal Absorptance
  0.92,                                   ! Solar Absorptance
  0.92;                                   ! Visible Absorptance

OS:Material,
  {27d3665b-d766-41d3-a13e-ef6a981d442a}, ! Handle
  AtticFloor Insulation [49],             ! Name
  MediumRough,                            ! Roughness
  0.205862,                               ! Thickness {m}
  0.049,                                  ! Conductivity {W/m-K}
  265,                                    ! Density {kg/m3}
  836.8,                                  ! Specific Heat {J/kg-K}
  0.9,                                    ! Thermal Absorptance
  0.7,                                    ! Solar Absorptance
  0.7;                                    ! Visible Absorptance

OS:Construction,
  {4c8a1ea1-b043-4382-bd73-58ad862a7474}, ! Handle
  Title 24-2008 Nonres 11 Attic Floor,    ! Name
  ,                                       ! Surface Rendering Name
  {63a68567-ffd6-40bf-9eca-bbd0fce3bd53}, ! Layer 1
  {27d3665b-d766-41d3-a13e-ef6a981d442a}, ! Layer 2
  {a4a6d8bc-768d-4b71-81f2-d242633a0e94}; ! Layer 3

OS:Material,
  {63a68567-ffd6-40bf-9eca-bbd0fce3bd53}, ! Handle
  1/2IN Gypsum Top,                       ! Name
  Smooth,                                 ! Roughness
  0.01271,                                ! Thickness {m}
  0.16,                                   ! Conductivity {W/m-K}
  784.9,                                  ! Density {kg/m3}
  830,                                    ! Specific Heat {J/kg-K}
  0.9,                                    ! Thermal Absorptance
  0.92,                                   ! Solar Absorptance
  0.92;                                   ! Visible Absorptance

