
OS:Version,
  {f7af18e5-3b7c-4cfc-aae4-d1506568221a}, ! Handle
  0.9.3;                                  ! Version Identifier

OS:Construction,
  {4b34a8e1-2cd9-4ff9-83b8-bc357f5785b0}, ! Handle
  90.1-1999 Nonres B25 Ext Wall Mass,     ! Name
  ,                                       ! Surface Rendering Name
  {e380b03b-dca1-4311-b664-4da6efee2ec4}, ! Layer 1
  {7c468064-0fd2-443b-8ca1-2025f3248b77}, ! Layer 2
  {1b5ec914-716d-497b-b7c4-631f666640d9}, ! Layer 3
  {e8293789-0b74-48eb-81b4-920065f78ce3}; ! Layer 4

OS:Material,
  {e380b03b-dca1-4311-b664-4da6efee2ec4}, ! Handle
  1IN Stucco,                             ! Name
  Smooth,                                 ! Roughness
  0.0253,                                 ! Thickness {m}
  0.6918,                                 ! Conductivity {W/m-K}
  1858,                                   ! Density {kg/m3}
  837,                                    ! Specific Heat {J/kg-K}
  0.9,                                    ! Thermal Absorptance
  0.92,                                   ! Solar Absorptance
  0.92;                                   ! Visible Absorptance

OS:Material,
  {7c468064-0fd2-443b-8ca1-2025f3248b77}, ! Handle
  8IN Concrete HW,                        ! Name
  MediumRough,                            ! Roughness
  0.2033,                                 ! Thickness {m}
  1.7296,                                 ! Conductivity {W/m-K}
  2243,                                   ! Density {kg/m3}
  837,                                    ! Specific Heat {J/kg-K}
  0.9,                                    ! Thermal Absorptance
  0.65,                                   ! Solar Absorptance
  0.65;                                   ! Visible Absorptance

OS:Material,
  {1b5ec914-716d-497b-b7c4-631f666640d9}, ! Handle
  Wall Insulation [14],                   ! Name
  MediumRough,                            ! Roughness
  0.0905233,                              ! Thickness {m}
  0.0432,                                 ! Conductivity {W/m-K}
  91,                                     ! Density {kg/m3}
  837,                                    ! Specific Heat {J/kg-K}
  0.9,                                    ! Thermal Absorptance
  0.5,                                    ! Solar Absorptance
  0.5;                                    ! Visible Absorptance

OS:Material,
  {e8293789-0b74-48eb-81b4-920065f78ce3}, ! Handle
  1/2IN Gypsum,                           ! Name
  Smooth,                                 ! Roughness
  0.01271,                                ! Thickness {m}
  0.16,                                   ! Conductivity {W/m-K}
  784.9,                                  ! Density {kg/m3}
  830,                                    ! Specific Heat {J/kg-K}
  0.9,                                    ! Thermal Absorptance
  0.92,                                   ! Solar Absorptance
  0.92;                                   ! Visible Absorptance

OS:ComponentCost:LineItem,
  {a0089038-a3e7-4260-a5a2-ec47428cf0a3}, ! Handle
  90.1-1999 Nonres B25 Ext Wall Mass,     ! Name
  ,                                       ! Type
  Construction,                           ! Line Item Type
  90.1-1999 Nonres B25 Ext Wall Mass,     ! Item Name
  ,                                       ! Object End Use Key
  ,                                       ! Quantity {dimensionless}
  70.253,                                 ! Material Cost {$}
  CostPerArea;                            ! Material Cost Units

OS:ComponentData,
  {2b8c347c-2cc2-40e4-bf06-dc90abe041f1}, ! Handle
  Component Data 1,                       ! Name
  {29075c13-8cca-468c-824e-2eaff68b872a}, ! UUID
  {2f0153f6-d1ea-4eb1-860f-9547ac8892e6}, ! Version UUID
  1363981152,                             ! Creation Timestamp
  1363981152,                             ! Version Timestamp
  {4b34a8e1-2cd9-4ff9-83b8-bc357f5785b0}, ! Name of Object 1
  {e380b03b-dca1-4311-b664-4da6efee2ec4}, ! Name of Object 2
  {7c468064-0fd2-443b-8ca1-2025f3248b77}, ! Name of Object 3
  {1b5ec914-716d-497b-b7c4-631f666640d9}, ! Name of Object 4
  {e8293789-0b74-48eb-81b4-920065f78ce3}, ! Name of Object 5
  {a0089038-a3e7-4260-a5a2-ec47428cf0a3}; ! Name of Object 6

