
OS:Version,
  {d2b5139c-4fff-4b94-8ecd-5814f289b4e8}, ! Handle
  0.9.3;                                  ! Version Identifier

OS:Material,
  {36de677f-c6ea-4d0b-9a5b-c812e8f0d30b}, ! Handle
  1/2IN Gypsum,                           ! Name
  Smooth,                                 ! Roughness
  0.01271,                                ! Thickness {m}
  0.16,                                   ! Conductivity {W/m-K}
  784.9,                                  ! Density {kg/m3}
  830,                                    ! Specific Heat {J/kg-K}
  0.9,                                    ! Thermal Absorptance
  0.92,                                   ! Solar Absorptance
  0.92;                                   ! Visible Absorptance

OS:Construction,
  {dca0dc88-7830-4130-8a72-8238ae6507f7}, ! Handle
  Title 24-2008 Nonres 6 Ext Wall Metal Building, ! Name
  ,                                       ! Surface Rendering Name
  {a771423f-4838-4615-bea0-0c2499e95869}, ! Layer 1
  {666589fe-f8c0-493e-ad6d-73978da3231c}, ! Layer 2
  {36de677f-c6ea-4d0b-9a5b-c812e8f0d30b}; ! Layer 3

OS:Material,
  {a771423f-4838-4615-bea0-0c2499e95869}, ! Handle
  Metal Siding,                           ! Name
  Smooth,                                 ! Roughness
  0.0015,                                 ! Thickness {m}
  44.96,                                  ! Conductivity {W/m-K}
  7688.86,                                ! Density {kg/m3}
  410,                                    ! Specific Heat {J/kg-K}
  0.9,                                    ! Thermal Absorptance
  0.2,                                    ! Solar Absorptance
  0.2;                                    ! Visible Absorptance

OS:Material,
  {666589fe-f8c0-493e-ad6d-73978da3231c}, ! Handle
  Wall Insulation [159],                  ! Name
  MediumRough,                            ! Roughness
  0.0812,                                 ! Thickness {m}
  0.045,                                  ! Conductivity {W/m-K}
  265,                                    ! Density {kg/m3}
  836.8,                                  ! Specific Heat {J/kg-K}
  0.9,                                    ! Thermal Absorptance
  0.7,                                    ! Solar Absorptance
  0.7;                                    ! Visible Absorptance

OS:ComponentCost:LineItem,
  {905fe874-5e0a-4368-a64b-7ee3e126216c}, ! Handle
  Title 24-2008 Nonres 6 Ext Wall Metal Building, ! Name
  ,                                       ! Type
  Construction,                           ! Line Item Type
  Title 24-2008 Nonres 6 Ext Wall Metal Building, ! Item Name
  ,                                       ! Object End Use Key
  ,                                       ! Quantity {dimensionless}
  184.211,                                ! Material Cost {$}
  CostPerArea;                            ! Material Cost Units

