
OS:Version,
  {662a8390-7e4b-4020-95a1-7c9e30f5209c}, ! Handle
  0.9.3;                                  ! Version Identifier

OS:Construction,
  {e84efe3e-06d9-4798-ad09-d2766ad497b8}, ! Handle
  90.1-2001 Nonres B15 Window Fixed,      ! Name
  ,                                       ! Surface Rendering Name
  {463c6de5-1ab7-4ba5-bd61-b6be9b909875}; ! Layer 1

OS:WindowMaterial:Glazing,
  {463c6de5-1ab7-4ba5-bd61-b6be9b909875}, ! Handle
  Theoretical Glass [37],                 ! Name
  SpectralAverage,                        ! Optical Data Type
  ,                                       ! Window Glass Spectral Data Set Name
  0.003,                                  ! Thickness {m}
  0.48413,                                ! Solar Transmittance at Normal Incidence
  0.46587,                                ! Front Side Solar Reflectance at Normal Incidence
  0.46587,                                ! Back Side Solar Reflectance at Normal Incidence
  0.529698,                               ! Visible Transmittance at Normal Incidence
  0.420302,                               ! Front Side Visible Reflectance at Normal Incidence
  0.420302,                               ! Back Side Visible Reflectance at Normal Incidence
  0,                                      ! Infrared Transmittance at Normal Incidence
  0.9,                                    ! Front Side Infrared Hemispherical Emissivity
  0.9,                                    ! Back Side Infrared Hemispherical Emissivity
  0.0134755;                              ! Conductivity {W/m-K}

OS:ComponentCost:LineItem,
  {32df8387-8c40-4f14-a12c-801e0feed22a}, ! Handle
  90.1-2001 Nonres B15 Window Fixed,      ! Name
  ,                                       ! Type
  Construction,                           ! Line Item Type
  90.1-2001 Nonres B15 Window Fixed,      ! Item Name
  ,                                       ! Object End Use Key
  ,                                       ! Quantity {dimensionless}
  444.232,                                ! Material Cost {$}
  CostPerArea;                            ! Material Cost Units

