
OS:Version,
  {6b134a7c-6c4d-4f90-af7f-5667c151ef64}, ! Handle
  0.9.3;                                  ! Version Identifier

OS:Material,
  {618d1b9a-a350-48df-9df7-de396a6baa36}, ! Handle
  Roof Insulation [2],                    ! Name
  MediumRough,                            ! Roughness
  0.221604,                               ! Thickness {m}
  0.049,                                  ! Conductivity {W/m-K}
  265,                                    ! Density {kg/m3}
  836.8,                                  ! Specific Heat {J/kg-K}
  0.9,                                    ! Thermal Absorptance
  0.7,                                    ! Solar Absorptance
  0.7;                                    ! Visible Absorptance

OS:Construction,
  {65fa45d4-9030-4ac7-b264-861b7c142c17}, ! Handle
  90.1-2001 Nonres B2 Roof Attic and Other, ! Name
  ,                                       ! Surface Rendering Name
  {9c0b0fb4-d7cd-489d-801b-a9e307a198a7}, ! Layer 1
  {1430f181-b6e6-424a-a9c0-92b8de61b491}, ! Layer 2
  {618d1b9a-a350-48df-9df7-de396a6baa36}, ! Layer 3
  {4fcf6a52-12eb-456d-9eba-dfd9560ecb71}; ! Layer 4

OS:Material,
  {9c0b0fb4-d7cd-489d-801b-a9e307a198a7}, ! Handle
  Wood Shingles,                          ! Name
  VeryRough,                              ! Roughness
  0.0178,                                 ! Thickness {m}
  0.115,                                  ! Conductivity {W/m-K}
  513,                                    ! Density {kg/m3}
  1255,                                   ! Specific Heat {J/kg-K}
  0.9,                                    ! Thermal Absorptance
  0.78,                                   ! Solar Absorptance
  0.78;                                   ! Visible Absorptance

OS:Material,
  {1430f181-b6e6-424a-a9c0-92b8de61b491}, ! Handle
  1IN Wood Decking,                       ! Name
  MediumSmooth,                           ! Roughness
  0.0254,                                 ! Thickness {m}
  0.1211,                                 ! Conductivity {W/m-K}
  593,                                    ! Density {kg/m3}
  2510,                                   ! Specific Heat {J/kg-K}
  0.9,                                    ! Thermal Absorptance
  0.78,                                   ! Solar Absorptance
  0.78;                                   ! Visible Absorptance

OS:Material,
  {4fcf6a52-12eb-456d-9eba-dfd9560ecb71}, ! Handle
  1/2IN Gypsum,                           ! Name
  Smooth,                                 ! Roughness
  0.01271,                                ! Thickness {m}
  0.16,                                   ! Conductivity {W/m-K}
  784.9,                                  ! Density {kg/m3}
  830,                                    ! Specific Heat {J/kg-K}
  0.9,                                    ! Thermal Absorptance
  0.92,                                   ! Solar Absorptance
  0.92;                                   ! Visible Absorptance

OS:ComponentCost:LineItem,
  {8a56eec3-b700-4fab-8449-de77c9704dbf}, ! Handle
  90.1-2001 Nonres B2 Roof Attic and Other, ! Name
  ,                                       ! Type
  Construction,                           ! Line Item Type
  90.1-2001 Nonres B2 Roof Attic and Other, ! Item Name
  ,                                       ! Object End Use Key
  ,                                       ! Quantity {dimensionless}
  33.39,                                  ! Material Cost {$}
  CostPerArea;                            ! Material Cost Units

