
OS:Version,
  {11969714-5ec8-4c69-a78a-28b5cd01f64f}, ! Handle
  0.9.3;                                  ! Version Identifier

OS:Construction,
  {f2d96fde-72d9-405e-a7ac-63743286d7a5}, ! Handle
  90.1-2001 Nonres B2 Roof Attic and Other, ! Name
  ,                                       ! Surface Rendering Name
  {e2add031-bf2b-4316-809c-da3cfb1c1a04}, ! Layer 1
  {6428b4f3-4b0a-4f6b-ba5f-d426e8f3fdbc}, ! Layer 2
  {debac3ea-3387-405d-9665-ca845a28fe57}, ! Layer 3
  {f2a83591-eb8e-498d-9daf-9096a6a6300c}; ! Layer 4

OS:Material,
  {e2add031-bf2b-4316-809c-da3cfb1c1a04}, ! Handle
  Wood Shingles,                          ! Name
  VeryRough,                              ! Roughness
  0.0178,                                 ! Thickness {m}
  0.115,                                  ! Conductivity {W/m-K}
  513,                                    ! Density {kg/m3}
  1255,                                   ! Specific Heat {J/kg-K}
  0.9,                                    ! Thermal Absorptance
  0.78,                                   ! Solar Absorptance
  0.78;                                   ! Visible Absorptance

OS:Material,
  {6428b4f3-4b0a-4f6b-ba5f-d426e8f3fdbc}, ! Handle
  1IN Wood Decking,                       ! Name
  MediumSmooth,                           ! Roughness
  0.0254,                                 ! Thickness {m}
  0.1211,                                 ! Conductivity {W/m-K}
  593,                                    ! Density {kg/m3}
  2510,                                   ! Specific Heat {J/kg-K}
  0.9,                                    ! Thermal Absorptance
  0.78,                                   ! Solar Absorptance
  0.78;                                   ! Visible Absorptance

OS:Material,
  {debac3ea-3387-405d-9665-ca845a28fe57}, ! Handle
  Roof Insulation [2],                    ! Name
  MediumRough,                            ! Roughness
  0.221604,                               ! Thickness {m}
  0.049,                                  ! Conductivity {W/m-K}
  265,                                    ! Density {kg/m3}
  836.8,                                  ! Specific Heat {J/kg-K}
  0.9,                                    ! Thermal Absorptance
  0.7,                                    ! Solar Absorptance
  0.7;                                    ! Visible Absorptance

OS:Material,
  {f2a83591-eb8e-498d-9daf-9096a6a6300c}, ! Handle
  1/2IN Gypsum,                           ! Name
  Smooth,                                 ! Roughness
  0.01271,                                ! Thickness {m}
  0.16,                                   ! Conductivity {W/m-K}
  784.9,                                  ! Density {kg/m3}
  830,                                    ! Specific Heat {J/kg-K}
  0.9,                                    ! Thermal Absorptance
  0.92,                                   ! Solar Absorptance
  0.92;                                   ! Visible Absorptance

OS:ComponentCost:LineItem,
  {9d753737-252e-4bb7-86f6-958d9dce0ced}, ! Handle
  90.1-2001 Nonres B2 Roof Attic and Other, ! Name
  ,                                       ! Type
  Construction,                           ! Line Item Type
  90.1-2001 Nonres B2 Roof Attic and Other, ! Item Name
  ,                                       ! Object End Use Key
  ,                                       ! Quantity {dimensionless}
  33.39,                                  ! Material Cost {$}
  CostPerArea;                            ! Material Cost Units

OS:ComponentData,
  {05544e08-fe46-47c2-8182-5e94aa026840}, ! Handle
  Component Data 1,                       ! Name
  {9cac33f4-5bc5-47ac-91e7-26722276f428}, ! UUID
  {c79be48e-85cc-43cf-8953-2e599271dfd8}, ! Version UUID
  1363981295,                             ! Creation Timestamp
  1363981295,                             ! Version Timestamp
  {f2d96fde-72d9-405e-a7ac-63743286d7a5}, ! Name of Object 1
  {e2add031-bf2b-4316-809c-da3cfb1c1a04}, ! Name of Object 2
  {6428b4f3-4b0a-4f6b-ba5f-d426e8f3fdbc}, ! Name of Object 3
  {debac3ea-3387-405d-9665-ca845a28fe57}, ! Name of Object 4
  {f2a83591-eb8e-498d-9daf-9096a6a6300c}, ! Name of Object 5
  {9d753737-252e-4bb7-86f6-958d9dce0ced}; ! Name of Object 6

