
OS:Version,
  {2c2277b0-03e9-4ba2-8f81-ee5e9b4408ce}, ! Handle
  0.9.3;                                  ! Version Identifier

OS:Construction,
  {ff3e3983-305d-42cd-b1ce-2ccfd0c83227}, ! Handle
  189.1-2009 Nonres 2A Ext Wall Wood-Framed and Other, ! Name
  ,                                       ! Surface Rendering Name
  {68478b58-6160-4b9c-a59f-a5c881a502f6}, ! Layer 1
  {6b355b3d-1e01-4486-b36c-14521a901b5b}, ! Layer 2
  {526ab9d2-11f8-4cd0-98fd-bfb36ba6298f}; ! Layer 3

OS:Material,
  {68478b58-6160-4b9c-a59f-a5c881a502f6}, ! Handle
  Wood Siding,                            ! Name
  MediumSmooth,                           ! Roughness
  0.01,                                   ! Thickness {m}
  0.11,                                   ! Conductivity {W/m-K}
  544.62,                                 ! Density {kg/m3}
  1210,                                   ! Specific Heat {J/kg-K}
  0.9,                                    ! Thermal Absorptance
  0.78,                                   ! Solar Absorptance
  0.78;                                   ! Visible Absorptance

OS:Material,
  {6b355b3d-1e01-4486-b36c-14521a901b5b}, ! Handle
  Wall Insulation [34],                   ! Name
  MediumRough,                            ! Roughness
  0.110422,                               ! Thickness {m}
  0.045,                                  ! Conductivity {W/m-K}
  265,                                    ! Density {kg/m3}
  836.8,                                  ! Specific Heat {J/kg-K}
  0.9,                                    ! Thermal Absorptance
  0.7,                                    ! Solar Absorptance
  0.7;                                    ! Visible Absorptance

OS:Material,
  {526ab9d2-11f8-4cd0-98fd-bfb36ba6298f}, ! Handle
  1/2IN Gypsum,                           ! Name
  Smooth,                                 ! Roughness
  0.01271,                                ! Thickness {m}
  0.16,                                   ! Conductivity {W/m-K}
  784.9,                                  ! Density {kg/m3}
  830,                                    ! Specific Heat {J/kg-K}
  0.9,                                    ! Thermal Absorptance
  0.92,                                   ! Solar Absorptance
  0.92;                                   ! Visible Absorptance

OS:ComponentCost:LineItem,
  {b061be5a-77bf-4133-b7c7-b2e2072d47a2}, ! Handle
  189.1-2009 Nonres 2A Ext Wall Wood-Framed and Other, ! Name
  ,                                       ! Type
  Construction,                           ! Line Item Type
  189.1-2009 Nonres 2A Ext Wall Wood-Framed and Other, ! Item Name
  ,                                       ! Object End Use Key
  ,                                       ! Quantity {dimensionless}
  77.743,                                 ! Material Cost {$}
  CostPerArea;                            ! Material Cost Units

