
OS:Version,
  {c7f4e0a6-d0ca-409b-92ab-811a6b481935}, ! Handle
  0.9.3;                                  ! Version Identifier

OS:Construction,
  {0b58943a-5bef-4709-aee5-91ca96f95b0d}, ! Handle
  189.1-2009 Nonres 2A Ext Wall Wood-Framed and Other, ! Name
  ,                                       ! Surface Rendering Name
  {fe063181-744a-4e05-ae54-3d7bcc4f6ced}, ! Layer 1
  {72b2ae94-ba5d-4cea-9e81-83e5d2d230e0}, ! Layer 2
  {99fe4ac4-488e-467f-a8bc-02acd330cd7a}; ! Layer 3

OS:Material,
  {fe063181-744a-4e05-ae54-3d7bcc4f6ced}, ! Handle
  Wood Siding,                            ! Name
  MediumSmooth,                           ! Roughness
  0.01,                                   ! Thickness {m}
  0.11,                                   ! Conductivity {W/m-K}
  544.62,                                 ! Density {kg/m3}
  1210,                                   ! Specific Heat {J/kg-K}
  0.9,                                    ! Thermal Absorptance
  0.78,                                   ! Solar Absorptance
  0.78;                                   ! Visible Absorptance

OS:Material,
  {72b2ae94-ba5d-4cea-9e81-83e5d2d230e0}, ! Handle
  Wall Insulation [34],                   ! Name
  MediumRough,                            ! Roughness
  0.110422,                               ! Thickness {m}
  0.045,                                  ! Conductivity {W/m-K}
  265,                                    ! Density {kg/m3}
  836.8,                                  ! Specific Heat {J/kg-K}
  0.9,                                    ! Thermal Absorptance
  0.7,                                    ! Solar Absorptance
  0.7;                                    ! Visible Absorptance

OS:Material,
  {99fe4ac4-488e-467f-a8bc-02acd330cd7a}, ! Handle
  1/2IN Gypsum,                           ! Name
  Smooth,                                 ! Roughness
  0.01271,                                ! Thickness {m}
  0.16,                                   ! Conductivity {W/m-K}
  784.9,                                  ! Density {kg/m3}
  830,                                    ! Specific Heat {J/kg-K}
  0.9,                                    ! Thermal Absorptance
  0.92,                                   ! Solar Absorptance
  0.92;                                   ! Visible Absorptance

OS:ComponentCost:LineItem,
  {32455a48-5b3b-45fe-a3e4-39ed0bafa98e}, ! Handle
  189.1-2009 Nonres 2A Ext Wall Wood-Framed and Other, ! Name
  ,                                       ! Type
  Construction,                           ! Line Item Type
  189.1-2009 Nonres 2A Ext Wall Wood-Framed and Other, ! Item Name
  ,                                       ! Object End Use Key
  ,                                       ! Quantity {dimensionless}
  77.743,                                 ! Material Cost {$}
  CostPerArea;                            ! Material Cost Units

OS:ComponentData,
  {e4e71d02-90f8-492d-9993-27982b489a1a}, ! Handle
  Component Data 1,                       ! Name
  {cbfe5ee2-e92f-45d3-b544-2095bd9cfbad}, ! UUID
  {27b3a9e1-f067-4749-83e0-6cd49521f0e7}, ! Version UUID
  1363979823,                             ! Creation Timestamp
  1363979823,                             ! Version Timestamp
  {0b58943a-5bef-4709-aee5-91ca96f95b0d}, ! Name of Object 1
  {fe063181-744a-4e05-ae54-3d7bcc4f6ced}, ! Name of Object 2
  {72b2ae94-ba5d-4cea-9e81-83e5d2d230e0}, ! Name of Object 3
  {99fe4ac4-488e-467f-a8bc-02acd330cd7a}, ! Name of Object 4
  {32455a48-5b3b-45fe-a3e4-39ed0bafa98e}; ! Name of Object 5

