
OS:Version,
  {97b75776-fe73-4ac1-8e8e-de61f5c6c7b2}, ! Handle
  0.9.3;                                  ! Version Identifier

OS:Construction,
  {53dbe870-df83-421f-b998-9e479e6d6a9f}, ! Handle
  90.1-1999 Res B2 Roof Attic and Other,  ! Name
  ,                                       ! Surface Rendering Name
  {27116f11-11e4-46e0-8910-c25dcdef4e0a}, ! Layer 1
  {e5989936-647b-43ff-a91d-286aff5cc880}, ! Layer 2
  {88f5f01c-1da3-4175-b2c7-f11007295d45}, ! Layer 3
  {83a2d13b-083b-478f-b3b9-3ee9d632ef0b}; ! Layer 4

OS:Material,
  {27116f11-11e4-46e0-8910-c25dcdef4e0a}, ! Handle
  Wood Shingles,                          ! Name
  VeryRough,                              ! Roughness
  0.0178,                                 ! Thickness {m}
  0.115,                                  ! Conductivity {W/m-K}
  513,                                    ! Density {kg/m3}
  1255,                                   ! Specific Heat {J/kg-K}
  0.9,                                    ! Thermal Absorptance
  0.78,                                   ! Solar Absorptance
  0.78;                                   ! Visible Absorptance

OS:Material,
  {e5989936-647b-43ff-a91d-286aff5cc880}, ! Handle
  1IN Wood Decking,                       ! Name
  MediumSmooth,                           ! Roughness
  0.0254,                                 ! Thickness {m}
  0.1211,                                 ! Conductivity {W/m-K}
  593,                                    ! Density {kg/m3}
  2510,                                   ! Specific Heat {J/kg-K}
  0.9,                                    ! Thermal Absorptance
  0.78,                                   ! Solar Absorptance
  0.78;                                   ! Visible Absorptance

OS:Material,
  {88f5f01c-1da3-4175-b2c7-f11007295d45}, ! Handle
  Roof Insulation [5],                    ! Name
  MediumRough,                            ! Roughness
  0.286906,                               ! Thickness {m}
  0.049,                                  ! Conductivity {W/m-K}
  265,                                    ! Density {kg/m3}
  836.8,                                  ! Specific Heat {J/kg-K}
  0.9,                                    ! Thermal Absorptance
  0.7,                                    ! Solar Absorptance
  0.7;                                    ! Visible Absorptance

OS:Material,
  {83a2d13b-083b-478f-b3b9-3ee9d632ef0b}, ! Handle
  1/2IN Gypsum,                           ! Name
  Smooth,                                 ! Roughness
  0.01271,                                ! Thickness {m}
  0.16,                                   ! Conductivity {W/m-K}
  784.9,                                  ! Density {kg/m3}
  830,                                    ! Specific Heat {J/kg-K}
  0.9,                                    ! Thermal Absorptance
  0.92,                                   ! Solar Absorptance
  0.92;                                   ! Visible Absorptance

OS:ComponentCost:LineItem,
  {131ba197-8223-4395-a366-32ff7e0c29a8}, ! Handle
  90.1-1999 Res B2 Roof Attic and Other,  ! Name
  ,                                       ! Type
  Construction,                           ! Line Item Type
  90.1-1999 Res B2 Roof Attic and Other,  ! Item Name
  ,                                       ! Object End Use Key
  ,                                       ! Quantity {dimensionless}
  34.757,                                 ! Material Cost {$}
  CostPerArea;                            ! Material Cost Units

OS:ComponentData,
  {04a6f825-d53a-4b8f-a0bf-53b789d0f84d}, ! Handle
  Component Data 1,                       ! Name
  {e9baaa38-98a9-449d-9def-4ffebe5dd1d7}, ! UUID
  {3312cf7c-c97b-4794-85d2-a19adefa356a}, ! Version UUID
  1363981167,                             ! Creation Timestamp
  1363981167,                             ! Version Timestamp
  {53dbe870-df83-421f-b998-9e479e6d6a9f}, ! Name of Object 1
  {27116f11-11e4-46e0-8910-c25dcdef4e0a}, ! Name of Object 2
  {e5989936-647b-43ff-a91d-286aff5cc880}, ! Name of Object 3
  {88f5f01c-1da3-4175-b2c7-f11007295d45}, ! Name of Object 4
  {83a2d13b-083b-478f-b3b9-3ee9d632ef0b}, ! Name of Object 5
  {131ba197-8223-4395-a366-32ff7e0c29a8}; ! Name of Object 6

