
OS:Version,
  {76f5ad09-da5f-4594-836a-44b135236999}, ! Handle
  0.9.3;                                  ! Version Identifier

OS:Construction,
  {46b4c519-daf1-4eaf-9782-3f82b75134ab}, ! Handle
  90.1 Windows Window Fixed 2641 Vnl-Clr-Ins-ClrSue, ! Name
  ,                                       ! Surface Rendering Name
  {f2a9d88a-9ffc-4571-8cac-9ba05d129e10}; ! Layer 1

OS:WindowMaterial:Glazing,
  {f2a9d88a-9ffc-4571-8cac-9ba05d129e10}, ! Handle
  Theoretical Glass [354],                ! Name
  SpectralAverage,                        ! Optical Data Type
  ,                                       ! Window Glass Spectral Data Set Name
  0.003,                                  ! Thickness {m}
  0.406492,                               ! Solar Transmittance at Normal Incidence
  0.543508,                               ! Front Side Solar Reflectance at Normal Incidence
  0.543508,                               ! Back Side Solar Reflectance at Normal Incidence
  0.599285,                               ! Visible Transmittance at Normal Incidence
  0.350715,                               ! Front Side Visible Reflectance at Normal Incidence
  0.350715,                               ! Back Side Visible Reflectance at Normal Incidence
  0,                                      ! Infrared Transmittance at Normal Incidence
  0.9,                                    ! Front Side Infrared Hemispherical Emissivity
  0.9,                                    ! Back Side Infrared Hemispherical Emissivity
  0.00776668;                             ! Conductivity {W/m-K}

OS:ComponentCost:LineItem,
  {0b81048c-6b84-4aaa-aa84-70dc5dc38d04}, ! Handle
  90.1 Windows Window Fixed 2641 Vnl-Clr-Ins-ClrSue, ! Name
  ,                                       ! Type
  Construction,                           ! Line Item Type
  90.1 Windows Window Fixed 2641 Vnl-Clr-Ins-ClrSue, ! Item Name
  ,                                       ! Object End Use Key
  ,                                       ! Quantity {dimensionless}
  0,                                      ! Material Cost {$}
  CostPerArea;                            ! Material Cost Units

OS:ComponentData,
  {dec1af77-2a10-41a6-a5a8-a32d0d2da5f9}, ! Handle
  Component Data 1,                       ! Name
  {5015e888-833b-4866-944b-a10083c67ba9}, ! UUID
  {02d4b485-60b1-4eac-81aa-7e30eb0b8e45}, ! Version UUID
  1363981010,                             ! Creation Timestamp
  1363981010,                             ! Version Timestamp
  {46b4c519-daf1-4eaf-9782-3f82b75134ab}, ! Name of Object 1
  {f2a9d88a-9ffc-4571-8cac-9ba05d129e10}, ! Name of Object 2
  {0b81048c-6b84-4aaa-aa84-70dc5dc38d04}; ! Name of Object 3

