
OS:Version,
  {d7fe9cbb-b687-4e07-aeb1-88b19e207b14}, ! Handle
  0.9.3;                                  ! Version Identifier

OS:Material,
  {1966b115-4973-49a4-a1c4-9b32145c64ad}, ! Handle
  1/2IN Gypsum Bottom,                    ! Name
  Smooth,                                 ! Roughness
  0.01271,                                ! Thickness {m}
  0.16,                                   ! Conductivity {W/m-K}
  784.9,                                  ! Density {kg/m3}
  830,                                    ! Specific Heat {J/kg-K}
  0.9,                                    ! Thermal Absorptance
  0.92,                                   ! Solar Absorptance
  0.92;                                   ! Visible Absorptance

OS:Material,
  {cef4e51b-a5ff-4f07-ab4f-3c7245a7e114}, ! Handle
  1/2IN Gypsum Top,                       ! Name
  Smooth,                                 ! Roughness
  0.01271,                                ! Thickness {m}
  0.16,                                   ! Conductivity {W/m-K}
  784.9,                                  ! Density {kg/m3}
  830,                                    ! Specific Heat {J/kg-K}
  0.9,                                    ! Thermal Absorptance
  0.92,                                   ! Solar Absorptance
  0.92;                                   ! Visible Absorptance

OS:Material,
  {9648ea8a-2090-4859-8fda-b8abc1bdf8a3}, ! Handle
  AtticFloor Insulation [49],             ! Name
  MediumRough,                            ! Roughness
  0.205862,                               ! Thickness {m}
  0.049,                                  ! Conductivity {W/m-K}
  265,                                    ! Density {kg/m3}
  836.8,                                  ! Specific Heat {J/kg-K}
  0.9,                                    ! Thermal Absorptance
  0.7,                                    ! Solar Absorptance
  0.7;                                    ! Visible Absorptance

OS:Construction,
  {f3f1244f-2fcd-4972-9f17-7a17e29b4c86}, ! Handle
  Title 24-2008 Nonres 3 Attic Floor,     ! Name
  ,                                       ! Surface Rendering Name
  {cef4e51b-a5ff-4f07-ab4f-3c7245a7e114}, ! Layer 1
  {9648ea8a-2090-4859-8fda-b8abc1bdf8a3}, ! Layer 2
  {1966b115-4973-49a4-a1c4-9b32145c64ad}; ! Layer 3

OS:ComponentCost:LineItem,
  {8adfb0c8-17ee-4267-9c7b-fcaf7017a228}, ! Handle
  Title 24-2008 Nonres 3 Attic Floor,     ! Name
  ,                                       ! Type
  Construction,                           ! Line Item Type
  Title 24-2008 Nonres 3 Attic Floor,     ! Item Name
  ,                                       ! Object End Use Key
  ,                                       ! Quantity {dimensionless}
  33.117,                                 ! Material Cost {$}
  CostPerArea;                            ! Material Cost Units

