
OS:Version,
  {e5db2163-c254-4b52-8300-0a5fa4424cd4}, ! Handle
  0.9.3;                                  ! Version Identifier

OS:Material,
  {07316c88-42e7-4c0c-9d11-544232495d8d}, ! Handle
  MAT-CC05 4 HW CONCRETE,                 ! Name
  Rough,                                  ! Roughness
  0.1016,                                 ! Thickness {m}
  1.311,                                  ! Conductivity {W/m-K}
  2240,                                   ! Density {kg/m3}
  836.8,                                  ! Specific Heat {J/kg-K}
  0.9,                                    ! Thermal Absorptance
  0.7,                                    ! Solar Absorptance
  0.7;                                    ! Visible Absorptance

OS:ComponentCost:LineItem,
  {89c508e2-ce54-4561-b1cf-38053deaaa9e}, ! Handle
  90.1-2004 Nonres 8A Ext Slab Unheated - 4in Slab without Carpet, ! Name
  ,                                       ! Type
  Construction,                           ! Line Item Type
  90.1-2004 Nonres 8A Ext Slab Unheated - 4in Slab without Carpet, ! Item Name
  ,                                       ! Object End Use Key
  ,                                       ! Quantity {dimensionless}
  45.52,                                  ! Material Cost {$}
  CostPerArea;                            ! Material Cost Units

OS:Construction,
  {64135c6d-7987-4880-8fc1-f6fd68ec9887}, ! Handle
  90.1-2004 Nonres 8A Ext Slab Unheated - 4in Slab without Carpet, ! Name
  ,                                       ! Surface Rendering Name
  {07316c88-42e7-4c0c-9d11-544232495d8d}; ! Layer 1

