
OS:Version,
  {6fd49210-8948-4969-acc7-25b83afd0ef6}, ! Handle
  0.9.3;                                  ! Version Identifier

OS:Material,
  {057dca5f-cf61-46e1-8b78-74cc94e68327}, ! Handle
  Roof Insulation [23],                   ! Name
  MediumRough,                            ! Roughness
  0.375211,                               ! Thickness {m}
  0.049,                                  ! Conductivity {W/m-K}
  265,                                    ! Density {kg/m3}
  836.8,                                  ! Specific Heat {J/kg-K}
  0.9,                                    ! Thermal Absorptance
  0.7,                                    ! Solar Absorptance
  0.7;                                    ! Visible Absorptance

OS:Material,
  {eb34fc0e-b10b-4f0e-9d05-cd1af734980e}, ! Handle
  1/2IN Gypsum,                           ! Name
  Smooth,                                 ! Roughness
  0.01271,                                ! Thickness {m}
  0.16,                                   ! Conductivity {W/m-K}
  784.9,                                  ! Density {kg/m3}
  830,                                    ! Specific Heat {J/kg-K}
  0.9,                                    ! Thermal Absorptance
  0.92,                                   ! Solar Absorptance
  0.92;                                   ! Visible Absorptance

OS:ComponentCost:LineItem,
  {60ff8e93-e916-4911-80f3-43a4c57b96f2}, ! Handle
  189.1-2009 Res 4B Roof Attic and Other, ! Name
  ,                                       ! Type
  Construction,                           ! Line Item Type
  189.1-2009 Res 4B Roof Attic and Other, ! Item Name
  ,                                       ! Object End Use Key
  ,                                       ! Quantity {dimensionless}
  36.871,                                 ! Material Cost {$}
  CostPerArea;                            ! Material Cost Units

OS:Material,
  {88c1f4ba-cc95-40ec-bb79-5b4a7c7c6aaf}, ! Handle
  Wood Shingles,                          ! Name
  VeryRough,                              ! Roughness
  0.0178,                                 ! Thickness {m}
  0.115,                                  ! Conductivity {W/m-K}
  513,                                    ! Density {kg/m3}
  1255,                                   ! Specific Heat {J/kg-K}
  0.9,                                    ! Thermal Absorptance
  0.78,                                   ! Solar Absorptance
  0.78;                                   ! Visible Absorptance

OS:Material,
  {16a297a7-5e4e-40f6-a26d-b9e233017f85}, ! Handle
  1IN Wood Decking,                       ! Name
  MediumSmooth,                           ! Roughness
  0.0254,                                 ! Thickness {m}
  0.1211,                                 ! Conductivity {W/m-K}
  593,                                    ! Density {kg/m3}
  2510,                                   ! Specific Heat {J/kg-K}
  0.9,                                    ! Thermal Absorptance
  0.78,                                   ! Solar Absorptance
  0.78;                                   ! Visible Absorptance

OS:Construction,
  {a5fb7aaa-03ed-4ed1-8c40-73f6d9ddf74e}, ! Handle
  189.1-2009 Res 4B Roof Attic and Other, ! Name
  ,                                       ! Surface Rendering Name
  {88c1f4ba-cc95-40ec-bb79-5b4a7c7c6aaf}, ! Layer 1
  {16a297a7-5e4e-40f6-a26d-b9e233017f85}, ! Layer 2
  {057dca5f-cf61-46e1-8b78-74cc94e68327}, ! Layer 3
  {eb34fc0e-b10b-4f0e-9d05-cd1af734980e}; ! Layer 4

