
OS:Version,
  {67df563c-cd77-485b-a5d0-66360a8cf01d}, ! Handle
  0.9.3;                                  ! Version Identifier

OS:ComponentCost:LineItem,
  {1f02899b-3c79-4439-83a8-8a6a5e9dc057}, ! Handle
  90.1-2001 Res B13 Ext Wall Metal Building, ! Name
  ,                                       ! Type
  Construction,                           ! Line Item Type
  90.1-2001 Res B13 Ext Wall Metal Building, ! Item Name
  ,                                       ! Object End Use Key
  ,                                       ! Quantity {dimensionless}
  98.78,                                  ! Material Cost {$}
  CostPerArea;                            ! Material Cost Units

OS:Material,
  {fe177d94-82b4-4447-898b-d3b64a2aa6b5}, ! Handle
  Wall Insulation,                        ! Name
  MediumRough,                            ! Roughness
  0.0598725,                              ! Thickness {m}
  0.045,                                  ! Conductivity {W/m-K}
  265,                                    ! Density {kg/m3}
  836.8,                                  ! Specific Heat {J/kg-K}
  0.9,                                    ! Thermal Absorptance
  0.7,                                    ! Solar Absorptance
  0.7;                                    ! Visible Absorptance

OS:Construction,
  {754948d7-e6df-43ab-89fd-34563f3856e8}, ! Handle
  90.1-2001 Res B13 Ext Wall Metal Building, ! Name
  ,                                       ! Surface Rendering Name
  {c89fd543-a019-40f4-a886-39d5c8deb78a}, ! Layer 1
  {fe177d94-82b4-4447-898b-d3b64a2aa6b5}, ! Layer 2
  {fcf88938-796a-4dca-83b2-1e95f34a37d5}; ! Layer 3

OS:Material,
  {c89fd543-a019-40f4-a886-39d5c8deb78a}, ! Handle
  Metal Siding,                           ! Name
  Smooth,                                 ! Roughness
  0.0015,                                 ! Thickness {m}
  44.96,                                  ! Conductivity {W/m-K}
  7688.86,                                ! Density {kg/m3}
  410,                                    ! Specific Heat {J/kg-K}
  0.9,                                    ! Thermal Absorptance
  0.2,                                    ! Solar Absorptance
  0.2;                                    ! Visible Absorptance

OS:Material,
  {fcf88938-796a-4dca-83b2-1e95f34a37d5}, ! Handle
  1/2IN Gypsum,                           ! Name
  Smooth,                                 ! Roughness
  0.01271,                                ! Thickness {m}
  0.16,                                   ! Conductivity {W/m-K}
  784.9,                                  ! Density {kg/m3}
  830,                                    ! Specific Heat {J/kg-K}
  0.9,                                    ! Thermal Absorptance
  0.92,                                   ! Solar Absorptance
  0.92;                                   ! Visible Absorptance

