
OS:Version,
  {9c8da6b8-dc13-4f36-b6eb-9493a701999f}, ! Handle
  0.9.3;                                  ! Version Identifier

OS:Material,
  {6546749d-6279-421e-affe-1341f5012607}, ! Handle
  Roof Insulation [3],                    ! Name
  MediumRough,                            ! Roughness
  0.0806842,                              ! Thickness {m}
  0.049,                                  ! Conductivity {W/m-K}
  265,                                    ! Density {kg/m3}
  836.8,                                  ! Specific Heat {J/kg-K}
  0.9,                                    ! Thermal Absorptance
  0.7,                                    ! Solar Absorptance
  0.7;                                    ! Visible Absorptance

OS:Construction,
  {ec256a1a-bcee-4283-89af-97501d6ebd3d}, ! Handle
  90.1-2001 Nonres B12 Roof IEAD,         ! Name
  ,                                       ! Surface Rendering Name
  {a71351cd-0a5f-44ce-8799-bb3af1c025bd}, ! Layer 1
  {6546749d-6279-421e-affe-1341f5012607}, ! Layer 2
  {da5ae7a0-028b-483c-8ee8-0dd3288a385f}; ! Layer 3

OS:Material,
  {a71351cd-0a5f-44ce-8799-bb3af1c025bd}, ! Handle
  Roof Membrane,                          ! Name
  VeryRough,                              ! Roughness
  0.0095,                                 ! Thickness {m}
  0.16,                                   ! Conductivity {W/m-K}
  1121.29,                                ! Density {kg/m3}
  1460,                                   ! Specific Heat {J/kg-K}
  0.9,                                    ! Thermal Absorptance
  0.7,                                    ! Solar Absorptance
  0.7;                                    ! Visible Absorptance

OS:Material,
  {da5ae7a0-028b-483c-8ee8-0dd3288a385f}, ! Handle
  Metal Decking,                          ! Name
  MediumSmooth,                           ! Roughness
  0.001524,                               ! Thickness {m}
  45.006,                                 ! Conductivity {W/m-K}
  7680,                                   ! Density {kg/m3}
  418.4,                                  ! Specific Heat {J/kg-K}
  0.9,                                    ! Thermal Absorptance
  0.7,                                    ! Solar Absorptance
  0.3;                                    ! Visible Absorptance

OS:ComponentCost:LineItem,
  {6386591d-0e87-4f78-8bbc-09051e84ff69}, ! Handle
  90.1-2001 Nonres B12 Roof IEAD,         ! Name
  ,                                       ! Type
  Construction,                           ! Line Item Type
  90.1-2001 Nonres B12 Roof IEAD,         ! Item Name
  ,                                       ! Object End Use Key
  ,                                       ! Quantity {dimensionless}
  45.318,                                 ! Material Cost {$}
  CostPerArea;                            ! Material Cost Units

