
OS:Version,
  {39cdcb0f-dc42-44b2-aac3-57af8955fbef}, ! Handle
  0.9.3;                                  ! Version Identifier

OS:Construction,
  {0f24820d-d052-49e4-8931-67584d57a832}, ! Handle
  90.1-1999 Nonres B22 Ext Wall Wood-Framed and Other, ! Name
  ,                                       ! Surface Rendering Name
  {73312c2b-1f28-4a4d-b985-a7cc5de8252d}, ! Layer 1
  {24a69147-6ebe-4668-899f-ca0f2702ff7f}, ! Layer 2
  {59b8ff9b-466f-4c90-b1d6-ad223a0fa48f}; ! Layer 3

OS:Material,
  {73312c2b-1f28-4a4d-b985-a7cc5de8252d}, ! Handle
  Wood Siding,                            ! Name
  MediumSmooth,                           ! Roughness
  0.01,                                   ! Thickness {m}
  0.11,                                   ! Conductivity {W/m-K}
  544.62,                                 ! Density {kg/m3}
  1210,                                   ! Specific Heat {J/kg-K}
  0.9,                                    ! Thermal Absorptance
  0.78,                                   ! Solar Absorptance
  0.78;                                   ! Visible Absorptance

OS:Material,
  {24a69147-6ebe-4668-899f-ca0f2702ff7f}, ! Handle
  Wall Insulation [2],                    ! Name
  MediumRough,                            ! Roughness
  0.0746874,                              ! Thickness {m}
  0.045,                                  ! Conductivity {W/m-K}
  265,                                    ! Density {kg/m3}
  836.8,                                  ! Specific Heat {J/kg-K}
  0.9,                                    ! Thermal Absorptance
  0.7,                                    ! Solar Absorptance
  0.7;                                    ! Visible Absorptance

OS:Material,
  {59b8ff9b-466f-4c90-b1d6-ad223a0fa48f}, ! Handle
  1/2IN Gypsum,                           ! Name
  Smooth,                                 ! Roughness
  0.01271,                                ! Thickness {m}
  0.16,                                   ! Conductivity {W/m-K}
  784.9,                                  ! Density {kg/m3}
  830,                                    ! Specific Heat {J/kg-K}
  0.9,                                    ! Thermal Absorptance
  0.92,                                   ! Solar Absorptance
  0.92;                                   ! Visible Absorptance

OS:ComponentCost:LineItem,
  {fccb69e6-ed66-40a8-b045-315f19cd30b2}, ! Handle
  90.1-1999 Nonres B22 Ext Wall Wood-Framed and Other, ! Name
  ,                                       ! Type
  Construction,                           ! Line Item Type
  90.1-1999 Nonres B22 Ext Wall Wood-Framed and Other, ! Item Name
  ,                                       ! Object End Use Key
  ,                                       ! Quantity {dimensionless}
  73.056,                                 ! Material Cost {$}
  CostPerArea;                            ! Material Cost Units

