
OS:Version,
  {c36177f8-fb05-4c8f-85b7-790e7da93d86}, ! Handle
  0.9.3;                                  ! Version Identifier

OS:Material,
  {0d38b168-230c-48ed-a113-c17f2162e200}, ! Handle
  1IN Wood Decking,                       ! Name
  MediumSmooth,                           ! Roughness
  0.0254,                                 ! Thickness {m}
  0.1211,                                 ! Conductivity {W/m-K}
  593,                                    ! Density {kg/m3}
  2510,                                   ! Specific Heat {J/kg-K}
  0.9,                                    ! Thermal Absorptance
  0.78,                                   ! Solar Absorptance
  0.78;                                   ! Visible Absorptance

OS:Material,
  {2e3157f7-a1f6-410e-89e5-cc09aa9fd964}, ! Handle
  1/2IN Gypsum,                           ! Name
  Smooth,                                 ! Roughness
  0.01271,                                ! Thickness {m}
  0.16,                                   ! Conductivity {W/m-K}
  784.9,                                  ! Density {kg/m3}
  830,                                    ! Specific Heat {J/kg-K}
  0.9,                                    ! Thermal Absorptance
  0.92,                                   ! Solar Absorptance
  0.92;                                   ! Visible Absorptance

OS:Construction,
  {f7eab65b-e035-462f-a896-a9e92c0198bd}, ! Handle
  90.1-2001 Nonres B4 Roof Attic and Other, ! Name
  ,                                       ! Surface Rendering Name
  {268e2e79-3e2b-4ca2-9a64-cdca0771f1c1}, ! Layer 1
  {0d38b168-230c-48ed-a113-c17f2162e200}, ! Layer 2
  {5f19bd81-3eb5-4f16-a3c1-9e34b6f968f6}, ! Layer 3
  {2e3157f7-a1f6-410e-89e5-cc09aa9fd964}; ! Layer 4

OS:Material,
  {268e2e79-3e2b-4ca2-9a64-cdca0771f1c1}, ! Handle
  Wood Shingles,                          ! Name
  VeryRough,                              ! Roughness
  0.0178,                                 ! Thickness {m}
  0.115,                                  ! Conductivity {W/m-K}
  513,                                    ! Density {kg/m3}
  1255,                                   ! Specific Heat {J/kg-K}
  0.9,                                    ! Thermal Absorptance
  0.78,                                   ! Solar Absorptance
  0.78;                                   ! Visible Absorptance

OS:Material,
  {5f19bd81-3eb5-4f16-a3c1-9e34b6f968f6}, ! Handle
  Roof Insulation [2],                    ! Name
  MediumRough,                            ! Roughness
  0.221604,                               ! Thickness {m}
  0.049,                                  ! Conductivity {W/m-K}
  265,                                    ! Density {kg/m3}
  836.8,                                  ! Specific Heat {J/kg-K}
  0.9,                                    ! Thermal Absorptance
  0.7,                                    ! Solar Absorptance
  0.7;                                    ! Visible Absorptance

OS:ComponentCost:LineItem,
  {54d3b8d8-39c3-45c9-b3c9-c609516bed04}, ! Handle
  90.1-2001 Nonres B4 Roof Attic and Other, ! Name
  ,                                       ! Type
  Construction,                           ! Line Item Type
  90.1-2001 Nonres B4 Roof Attic and Other, ! Item Name
  ,                                       ! Object End Use Key
  ,                                       ! Quantity {dimensionless}
  33.39,                                  ! Material Cost {$}
  CostPerArea;                            ! Material Cost Units

