
OS:Version,
  {abff1f4a-fa0c-4406-8942-b1c210735ea3}, ! Handle
  0.9.3;                                  ! Version Identifier

OS:Construction,
  {ffc3957c-7cf7-4564-8f6a-674f7af539eb}, ! Handle
  90.1-2004 Nonres 4B Window Fixed,       ! Name
  ,                                       ! Surface Rendering Name
  {ea03ffcd-91cc-4cb9-8654-d34040ff4da0}; ! Layer 1

OS:WindowMaterial:Glazing,
  {ea03ffcd-91cc-4cb9-8654-d34040ff4da0}, ! Handle
  Theoretical Glass [145],                ! Name
  SpectralAverage,                        ! Optical Data Type
  ,                                       ! Window Glass Spectral Data Set Name
  0.003,                                  ! Thickness {m}
  0.354957,                               ! Solar Transmittance at Normal Incidence
  0.595043,                               ! Front Side Solar Reflectance at Normal Incidence
  0.595043,                               ! Back Side Solar Reflectance at Normal Incidence
  0.457336,                               ! Visible Transmittance at Normal Incidence
  0.492664,                               ! Front Side Visible Reflectance at Normal Incidence
  0.492664,                               ! Back Side Visible Reflectance at Normal Incidence
  0,                                      ! Infrared Transmittance at Normal Incidence
  0.9,                                    ! Front Side Infrared Hemispherical Emissivity
  0.9,                                    ! Back Side Infrared Hemispherical Emissivity
  0.0134755;                              ! Conductivity {W/m-K}

OS:ComponentCost:LineItem,
  {9cc0fdd9-eded-4cd1-84d8-f3b3508436df}, ! Handle
  90.1-2004 Nonres 4B Window Fixed,       ! Name
  ,                                       ! Type
  Construction,                           ! Line Item Type
  90.1-2004 Nonres 4B Window Fixed,       ! Item Name
  ,                                       ! Object End Use Key
  ,                                       ! Quantity {dimensionless}
  544.731,                                ! Material Cost {$}
  CostPerArea;                            ! Material Cost Units

