
OS:Version,
  {b4bde141-fa1e-4d5b-b565-d41b78b4678a}, ! Handle
  0.9.3;                                  ! Version Identifier

OS:ComponentCost:LineItem,
  {28151967-173d-40e3-bf3f-c4dcac02ce44}, ! Handle
  189.1-2009 Nonres 5B Roof Metal Building, ! Name
  ,                                       ! Type
  Construction,                           ! Line Item Type
  189.1-2009 Nonres 5B Roof Metal Building, ! Item Name
  ,                                       ! Object End Use Key
  ,                                       ! Quantity {dimensionless}
  47.657,                                 ! Material Cost {$}
  CostPerArea;                            ! Material Cost Units

OS:Construction,
  {0010db85-95e6-4ccc-9542-8ff77e70bb37}, ! Handle
  189.1-2009 Nonres 5B Roof Metal Building, ! Name
  ,                                       ! Surface Rendering Name
  {ceb27e08-645a-466e-aa63-b5f62d46afd6}, ! Layer 1
  {637fb11f-5b49-4c2c-b8a9-afae88fb27c6}; ! Layer 2

OS:Material,
  {ceb27e08-645a-466e-aa63-b5f62d46afd6}, ! Handle
  Metal Roofing,                          ! Name
  MediumSmooth,                           ! Roughness
  0.001524,                               ! Thickness {m}
  45.006,                                 ! Conductivity {W/m-K}
  7680,                                   ! Density {kg/m3}
  418.4,                                  ! Specific Heat {J/kg-K}
  0.9,                                    ! Thermal Absorptance
  0.7,                                    ! Solar Absorptance
  0.3;                                    ! Visible Absorptance

OS:Material,
  {637fb11f-5b49-4c2c-b8a9-afae88fb27c6}, ! Handle
  Roof Insulation [22],                   ! Name
  MediumRough,                            ! Roughness
  0.23578,                                ! Thickness {m}
  0.049,                                  ! Conductivity {W/m-K}
  265,                                    ! Density {kg/m3}
  836.8,                                  ! Specific Heat {J/kg-K}
  0.9,                                    ! Thermal Absorptance
  0.7,                                    ! Solar Absorptance
  0.7;                                    ! Visible Absorptance

