
OS:Version,
  {f083cc5b-65c8-4a86-af2f-62273089a500}, ! Handle
  0.9.3;                                  ! Version Identifier

OS:Construction,
  {8d4c9f02-4e0f-40a8-9619-2468a4b8cb71}, ! Handle
  189.1-2009 Nonres 5B Roof Metal Building, ! Name
  ,                                       ! Surface Rendering Name
  {5c4687e5-5f24-4d70-932b-9976b4399f91}, ! Layer 1
  {e80c6260-a84e-40b8-8269-04e0b1a0397c}; ! Layer 2

OS:Material,
  {5c4687e5-5f24-4d70-932b-9976b4399f91}, ! Handle
  Metal Roofing,                          ! Name
  MediumSmooth,                           ! Roughness
  0.001524,                               ! Thickness {m}
  45.006,                                 ! Conductivity {W/m-K}
  7680,                                   ! Density {kg/m3}
  418.4,                                  ! Specific Heat {J/kg-K}
  0.9,                                    ! Thermal Absorptance
  0.7,                                    ! Solar Absorptance
  0.3;                                    ! Visible Absorptance

OS:Material,
  {e80c6260-a84e-40b8-8269-04e0b1a0397c}, ! Handle
  Roof Insulation [22],                   ! Name
  MediumRough,                            ! Roughness
  0.23578,                                ! Thickness {m}
  0.049,                                  ! Conductivity {W/m-K}
  265,                                    ! Density {kg/m3}
  836.8,                                  ! Specific Heat {J/kg-K}
  0.9,                                    ! Thermal Absorptance
  0.7,                                    ! Solar Absorptance
  0.7;                                    ! Visible Absorptance

OS:ComponentCost:LineItem,
  {b5bab8bf-6c08-4772-a3ac-35060265d427}, ! Handle
  189.1-2009 Nonres 5B Roof Metal Building, ! Name
  ,                                       ! Type
  Construction,                           ! Line Item Type
  189.1-2009 Nonres 5B Roof Metal Building, ! Item Name
  ,                                       ! Object End Use Key
  ,                                       ! Quantity {dimensionless}
  47.657,                                 ! Material Cost {$}
  CostPerArea;                            ! Material Cost Units

OS:ComponentData,
  {31fb5b57-91af-4331-b0cd-9304dfb2ff02}, ! Handle
  Component Data 1,                       ! Name
  {21ac6c34-30fb-4d7f-951c-518f9ff35563}, ! UUID
  {3cfed9e5-f6e6-480c-841e-0945ce7e1a6b}, ! Version UUID
  1363980942,                             ! Creation Timestamp
  1363980942,                             ! Version Timestamp
  {8d4c9f02-4e0f-40a8-9619-2468a4b8cb71}, ! Name of Object 1
  {5c4687e5-5f24-4d70-932b-9976b4399f91}, ! Name of Object 2
  {e80c6260-a84e-40b8-8269-04e0b1a0397c}, ! Name of Object 3
  {b5bab8bf-6c08-4772-a3ac-35060265d427}; ! Name of Object 4

