
OS:Version,
  {9cc592a6-a09f-467a-b946-963972159cb5}, ! Handle
  0.9.3;                                  ! Version Identifier

OS:Construction,
  {9dc28714-9298-4df7-8306-d775e07570fe}, ! Handle
  90.1-2004 Nonres 2A Ext Slab Unheated - 8in Slab with Carpet, ! Name
  ,                                       ! Surface Rendering Name
  {0d29e319-9805-40c6-8e7b-0170ffad48bc}, ! Layer 1
  {ac3d0915-4a0d-48ea-9834-d21e4e32c669}; ! Layer 2

OS:Material,
  {0d29e319-9805-40c6-8e7b-0170ffad48bc}, ! Handle
  MAT-CC05 8 HW CONCRETE,                 ! Name
  Rough,                                  ! Roughness
  0.20321,                                ! Thickness {m}
  1.311,                                  ! Conductivity {W/m-K}
  2240,                                   ! Density {kg/m3}
  836.8,                                  ! Specific Heat {J/kg-K}
  0.9,                                    ! Thermal Absorptance
  0.7,                                    ! Solar Absorptance
  0.7;                                    ! Visible Absorptance

OS:Material:NoMass,
  {ac3d0915-4a0d-48ea-9834-d21e4e32c669}, ! Handle
  CP02 CARPET PAD,                        ! Name
  VeryRough,                              ! Roughness
  0.21648,                                ! Thermal Resistance {m2-K/W}
  0.9,                                    ! Thermal Absorptance
  0.7,                                    ! Solar Absorptance
  0.8;                                    ! Visible Absorptance

OS:ComponentCost:LineItem,
  {31f982bf-0e0c-497c-b524-2b396a5810c3}, ! Handle
  90.1-2004 Nonres 2A Ext Slab Unheated - 8in Slab with Carpet, ! Name
  ,                                       ! Type
  Construction,                           ! Line Item Type
  90.1-2004 Nonres 2A Ext Slab Unheated - 8in Slab with Carpet, ! Item Name
  ,                                       ! Object End Use Key
  ,                                       ! Quantity {dimensionless}
  45.52,                                  ! Material Cost {$}
  CostPerArea;                            ! Material Cost Units

OS:ComponentData,
  {49fb8c29-13a5-427c-aeae-2a00af9e9ab9}, ! Handle
  Component Data 1,                       ! Name
  {43f74b65-b767-4353-a1fd-6551a9b39407}, ! UUID
  {082ee4ef-0da6-452f-b9ff-988c512379db}, ! Version UUID
  1363981638,                             ! Creation Timestamp
  1363981638,                             ! Version Timestamp
  {9dc28714-9298-4df7-8306-d775e07570fe}, ! Name of Object 1
  {0d29e319-9805-40c6-8e7b-0170ffad48bc}, ! Name of Object 2
  {ac3d0915-4a0d-48ea-9834-d21e4e32c669}, ! Name of Object 3
  {31f982bf-0e0c-497c-b524-2b396a5810c3}; ! Name of Object 4

