
OS:Version,
  {aa14d7b3-f183-40b5-bfc3-8bb3e6e2c76a}, ! Handle
  0.9.3;                                  ! Version Identifier

OS:Material,
  {75ebffb4-4120-4a27-9cef-dba3496c058f}, ! Handle
  MAT-CC05 8 HW CONCRETE,                 ! Name
  Rough,                                  ! Roughness
  0.20321,                                ! Thickness {m}
  1.311,                                  ! Conductivity {W/m-K}
  2240,                                   ! Density {kg/m3}
  836.8,                                  ! Specific Heat {J/kg-K}
  0.9,                                    ! Thermal Absorptance
  0.7,                                    ! Solar Absorptance
  0.7;                                    ! Visible Absorptance

OS:ComponentCost:LineItem,
  {9bfd190b-3294-4121-96d7-7aa735a8e708}, ! Handle
  90.1-2004 Nonres 2A Ext Slab Unheated - 8in Slab with Carpet, ! Name
  ,                                       ! Type
  Construction,                           ! Line Item Type
  90.1-2004 Nonres 2A Ext Slab Unheated - 8in Slab with Carpet, ! Item Name
  ,                                       ! Object End Use Key
  ,                                       ! Quantity {dimensionless}
  45.52,                                  ! Material Cost {$}
  CostPerArea;                            ! Material Cost Units

OS:Material:NoMass,
  {c5aa994a-d834-457a-aecc-aaf2403c3e59}, ! Handle
  CP02 CARPET PAD,                        ! Name
  VeryRough,                              ! Roughness
  0.21648,                                ! Thermal Resistance {m2-K/W}
  0.9,                                    ! Thermal Absorptance
  0.7,                                    ! Solar Absorptance
  0.8;                                    ! Visible Absorptance

OS:Construction,
  {0022f927-09cb-45d9-a3a9-bc4151654399}, ! Handle
  90.1-2004 Nonres 2A Ext Slab Unheated - 8in Slab with Carpet, ! Name
  ,                                       ! Surface Rendering Name
  {75ebffb4-4120-4a27-9cef-dba3496c058f}, ! Layer 1
  {c5aa994a-d834-457a-aecc-aaf2403c3e59}; ! Layer 2

