
OS:Version,
  {cabf7fd8-675b-427e-891f-8b4ea68142cf}, ! Handle
  0.9.3;                                  ! Version Identifier

OS:Construction,
  {5688c5f1-a577-4b57-a9b3-84d418f494cd}, ! Handle
  189.1-2009 Res 1A Window Nonmetal framing, ! Name
  ,                                       ! Surface Rendering Name
  {7784ff7c-3fdf-45c6-a8e1-99cd7863695e}; ! Layer 1

OS:WindowMaterial:Glazing,
  {7784ff7c-3fdf-45c6-a8e1-99cd7863695e}, ! Handle
  Theoretical Glass [167],                ! Name
  SpectralAverage,                        ! Optical Data Type
  ,                                       ! Window Glass Spectral Data Set Name
  0.003,                                  ! Thickness {m}
  0.237362,                               ! Solar Transmittance at Normal Incidence
  0.712638,                               ! Front Side Solar Reflectance at Normal Incidence
  0.712638,                               ! Back Side Solar Reflectance at Normal Incidence
  0.251212,                               ! Visible Transmittance at Normal Incidence
  0.698788,                               ! Front Side Visible Reflectance at Normal Incidence
  0.698788,                               ! Back Side Visible Reflectance at Normal Incidence
  0,                                      ! Infrared Transmittance at Normal Incidence
  0.985,                                  ! Front Side Infrared Hemispherical Emissivity
  0.985,                                  ! Back Side Infrared Hemispherical Emissivity
  2.10728;                                ! Conductivity {W/m-K}

OS:ComponentCost:LineItem,
  {3d1c291f-3db6-48fb-ade7-42c49279f8ec}, ! Handle
  189.1-2009 Res 1A Window Nonmetal framing, ! Name
  ,                                       ! Type
  Construction,                           ! Line Item Type
  189.1-2009 Res 1A Window Nonmetal framing, ! Item Name
  ,                                       ! Object End Use Key
  ,                                       ! Quantity {dimensionless}
  534.616,                                ! Material Cost {$}
  CostPerArea;                            ! Material Cost Units

OS:ComponentData,
  {1c6899ac-6e40-4f90-bc26-ed7c1e57d412}, ! Handle
  Component Data 1,                       ! Name
  {911cacdf-a4ab-46f9-9304-300a96c822f6}, ! UUID
  {2f7f8507-35ad-4b8e-8a4f-d798b7e7ad33}, ! Version UUID
  1363980961,                             ! Creation Timestamp
  1363980961,                             ! Version Timestamp
  {5688c5f1-a577-4b57-a9b3-84d418f494cd}, ! Name of Object 1
  {7784ff7c-3fdf-45c6-a8e1-99cd7863695e}, ! Name of Object 2
  {3d1c291f-3db6-48fb-ade7-42c49279f8ec}; ! Name of Object 3

