
OS:Version,
  {dc9c0b50-d9a9-4190-90c4-fa52aa036eb6}, ! Handle
  0.9.3;                                  ! Version Identifier

OS:Construction,
  {2b00a819-454f-46fc-a75b-8b30758a729d}, ! Handle
  90.1-2001 Nonres B13 Ext Slab Unheated - 8in Slab without Carpet, ! Name
  ,                                       ! Surface Rendering Name
  {cbe9759d-5330-4fba-a0f7-13a1207ed156}; ! Layer 1

OS:Material,
  {cbe9759d-5330-4fba-a0f7-13a1207ed156}, ! Handle
  MAT-CC05 8 HW CONCRETE,                 ! Name
  Rough,                                  ! Roughness
  0.20321,                                ! Thickness {m}
  1.311,                                  ! Conductivity {W/m-K}
  2240,                                   ! Density {kg/m3}
  836.8,                                  ! Specific Heat {J/kg-K}
  0.9,                                    ! Thermal Absorptance
  0.7,                                    ! Solar Absorptance
  0.7;                                    ! Visible Absorptance

OS:ComponentCost:LineItem,
  {1b748a72-411f-45eb-ab35-bb89d45a7c62}, ! Handle
  90.1-2001 Nonres B13 Ext Slab Unheated - 8in Slab without Carpet, ! Name
  ,                                       ! Type
  Construction,                           ! Line Item Type
  90.1-2001 Nonres B13 Ext Slab Unheated - 8in Slab without Carpet, ! Item Name
  ,                                       ! Object End Use Key
  ,                                       ! Quantity {dimensionless}
  45.52,                                  ! Material Cost {$}
  CostPerArea;                            ! Material Cost Units

