
OS:Version,
  {1a8c5f04-48e1-4f25-9c85-d6c8ff9495e9}, ! Handle
  0.9.3;                                  ! Version Identifier

OS:ComponentCost:LineItem,
  {36fe0ebf-4de0-42e2-a3fe-54bb5a9e6f6e}, ! Handle
  90.1-1999 Res B6 Ext Wall Steel-Framed, ! Name
  ,                                       ! Type
  Construction,                           ! Line Item Type
  90.1-1999 Res B6 Ext Wall Steel-Framed, ! Item Name
  ,                                       ! Object End Use Key
  ,                                       ! Quantity {dimensionless}
  87.08,                                  ! Material Cost {$}
  CostPerArea;                            ! Material Cost Units

OS:Material:NoMass,
  {d4b86293-b77d-42a3-96f7-c044b473bd52}, ! Handle
  MAT-SHEATH,                             ! Name
  Rough,                                  ! Roughness
  0.36256,                                ! Thermal Resistance {m2-K/W}
  0.9,                                    ! Thermal Absorptance
  0.7,                                    ! Solar Absorptance
  0.7;                                    ! Visible Absorptance

OS:Construction,
  {758a8714-ffb6-44b3-bc38-92bb41d452a0}, ! Handle
  90.1-1999 Res B6 Ext Wall Steel-Framed, ! Name
  ,                                       ! Surface Rendering Name
  {d4b86293-b77d-42a3-96f7-c044b473bd52}, ! Layer 1
  {a4918980-4717-44be-a7be-197e10dda13c}, ! Layer 2
  {3cf64b8b-3b81-440a-ba1c-f4582568e2c3}; ! Layer 3

OS:Material,
  {a4918980-4717-44be-a7be-197e10dda13c}, ! Handle
  Wall Insulation [1],                    ! Name
  MediumRough,                            ! Roughness
  0.0373223,                              ! Thickness {m}
  0.045,                                  ! Conductivity {W/m-K}
  265,                                    ! Density {kg/m3}
  836.8,                                  ! Specific Heat {J/kg-K}
  0.9,                                    ! Thermal Absorptance
  0.7,                                    ! Solar Absorptance
  0.7;                                    ! Visible Absorptance

OS:Material,
  {3cf64b8b-3b81-440a-ba1c-f4582568e2c3}, ! Handle
  1/2IN Gypsum,                           ! Name
  Smooth,                                 ! Roughness
  0.01271,                                ! Thickness {m}
  0.16,                                   ! Conductivity {W/m-K}
  784.9,                                  ! Density {kg/m3}
  830,                                    ! Specific Heat {J/kg-K}
  0.9,                                    ! Thermal Absorptance
  0.92,                                   ! Solar Absorptance
  0.92;                                   ! Visible Absorptance

