
OS:Version,
  {d59237ec-aa43-4cad-aaac-c1b8ed702741}, ! Handle
  0.9.3;                                  ! Version Identifier

OS:Construction,
  {b51b50ef-59a8-4324-95f4-79687e088118}, ! Handle
  90.1 Windows Window Fixed 2335 Brk-GrnMpr-Std-ClrSpe, ! Name
  ,                                       ! Surface Rendering Name
  {b9863536-90fc-4cc5-b411-e4cb7c792f0b}; ! Layer 1

OS:WindowMaterial:Glazing,
  {b9863536-90fc-4cc5-b411-e4cb7c792f0b}, ! Handle
  Theoretical Glass [494],                ! Name
  SpectralAverage,                        ! Optical Data Type
  ,                                       ! Window Glass Spectral Data Set Name
  0.003,                                  ! Thickness {m}
  0.255355,                               ! Solar Transmittance at Normal Incidence
  0.694645,                               ! Front Side Solar Reflectance at Normal Incidence
  0.694645,                               ! Back Side Solar Reflectance at Normal Incidence
  0.320998,                               ! Visible Transmittance at Normal Incidence
  0.629002,                               ! Front Side Visible Reflectance at Normal Incidence
  0.629002,                               ! Back Side Visible Reflectance at Normal Incidence
  0,                                      ! Infrared Transmittance at Normal Incidence
  0.9,                                    ! Front Side Infrared Hemispherical Emissivity
  0.9,                                    ! Back Side Infrared Hemispherical Emissivity
  0.0144823;                              ! Conductivity {W/m-K}

OS:ComponentCost:LineItem,
  {80aac5c6-f1b8-4745-95dd-34407ce44d19}, ! Handle
  90.1 Windows Window Fixed 2335 Brk-GrnMpr-Std-ClrSpe, ! Name
  ,                                       ! Type
  Construction,                           ! Line Item Type
  90.1 Windows Window Fixed 2335 Brk-GrnMpr-Std-ClrSpe, ! Item Name
  ,                                       ! Object End Use Key
  ,                                       ! Quantity {dimensionless}
  0,                                      ! Material Cost {$}
  CostPerArea;                            ! Material Cost Units

