
OS:Version,
  {da129966-86d2-41e7-9f2d-f068b32fa334}, ! Handle
  0.9.3;                                  ! Version Identifier

OS:Construction,
  {4777375e-30e6-4211-aef4-72d6ec8f4a84}, ! Handle
  189.1-2009 Res 3A Window Metal framing entrance door, ! Name
  ,                                       ! Surface Rendering Name
  {c76ee2dc-097c-4551-85de-d4ff7b1e7fc6}; ! Layer 1

OS:WindowMaterial:Glazing,
  {c76ee2dc-097c-4551-85de-d4ff7b1e7fc6}, ! Handle
  Theoretical Glass [201],                ! Name
  SpectralAverage,                        ! Optical Data Type
  ,                                       ! Window Glass Spectral Data Set Name
  0.003,                                  ! Thickness {m}
  0.234922,                               ! Solar Transmittance at Normal Incidence
  0.715078,                               ! Front Side Solar Reflectance at Normal Incidence
  0.715078,                               ! Back Side Solar Reflectance at Normal Incidence
  0.319199,                               ! Visible Transmittance at Normal Incidence
  0.630801,                               ! Front Side Visible Reflectance at Normal Incidence
  0.630801,                               ! Back Side Visible Reflectance at Normal Incidence
  0,                                      ! Infrared Transmittance at Normal Incidence
  0.9,                                    ! Front Side Infrared Hemispherical Emissivity
  0.9,                                    ! Back Side Infrared Hemispherical Emissivity
  0.0516419;                              ! Conductivity {W/m-K}

OS:ComponentCost:LineItem,
  {dfbb75ad-2509-4354-92f4-c17bc77800d5}, ! Handle
  189.1-2009 Res 3A Window Metal framing entrance door, ! Name
  ,                                       ! Type
  Construction,                           ! Line Item Type
  189.1-2009 Res 3A Window Metal framing entrance door, ! Item Name
  ,                                       ! Object End Use Key
  ,                                       ! Quantity {dimensionless}
  577.118,                                ! Material Cost {$}
  CostPerArea;                            ! Material Cost Units

