
OS:Version,
  {7163ac77-a084-4507-8e38-85fca5b56888}, ! Handle
  0.9.3;                                  ! Version Identifier

OS:Material,
  {4b580cba-1982-4200-942a-52ce8690cd6e}, ! Handle
  Wall Insulation [155],                  ! Name
  MediumRough,                            ! Roughness
  0.00991492,                             ! Thickness {m}
  0.045,                                  ! Conductivity {W/m-K}
  265,                                    ! Density {kg/m3}
  836.8,                                  ! Specific Heat {J/kg-K}
  0.9,                                    ! Thermal Absorptance
  0.7,                                    ! Solar Absorptance
  0.7;                                    ! Visible Absorptance

OS:Material:NoMass,
  {5f63c450-1625-4029-8109-e7c2d890996f}, ! Handle
  MAT-SHEATH,                             ! Name
  Rough,                                  ! Roughness
  0.36256,                                ! Thermal Resistance {m2-K/W}
  0.9,                                    ! Thermal Absorptance
  0.7,                                    ! Solar Absorptance
  0.7;                                    ! Visible Absorptance

OS:ComponentCost:LineItem,
  {5b48340b-d6d3-4b87-964f-624b798763f0}, ! Handle
  Title 24-2005 Nonres 2 Ext Wall Steel-Framed, ! Name
  ,                                       ! Type
  Construction,                           ! Line Item Type
  Title 24-2005 Nonres 2 Ext Wall Steel-Framed, ! Item Name
  ,                                       ! Object End Use Key
  ,                                       ! Quantity {dimensionless}
  85.252,                                 ! Material Cost {$}
  CostPerArea;                            ! Material Cost Units

OS:Construction,
  {aa95ee9e-02d0-448f-92a7-84c1043b3fdf}, ! Handle
  Title 24-2005 Nonres 2 Ext Wall Steel-Framed, ! Name
  ,                                       ! Surface Rendering Name
  {5f63c450-1625-4029-8109-e7c2d890996f}, ! Layer 1
  {4b580cba-1982-4200-942a-52ce8690cd6e}, ! Layer 2
  {14683e98-e155-4c03-a2c1-392274020183}; ! Layer 3

OS:Material,
  {14683e98-e155-4c03-a2c1-392274020183}, ! Handle
  1/2IN Gypsum,                           ! Name
  Smooth,                                 ! Roughness
  0.01271,                                ! Thickness {m}
  0.16,                                   ! Conductivity {W/m-K}
  784.9,                                  ! Density {kg/m3}
  830,                                    ! Specific Heat {J/kg-K}
  0.9,                                    ! Thermal Absorptance
  0.92,                                   ! Solar Absorptance
  0.92;                                   ! Visible Absorptance

