
OS:Version,
  {75534023-1ed3-482a-9ec8-ff2ed7f5daea}, ! Handle
  0.9.3;                                  ! Version Identifier

OS:Construction,
  {40761c11-985f-46dc-960a-e25b74313d49}, ! Handle
  90.1-2007 Res 7A Ext Slab Unheated - 4in Slab without Carpet, ! Name
  ,                                       ! Surface Rendering Name
  {a1d8fe06-944d-4c22-b717-efb64143253e}; ! Layer 1

OS:Material,
  {a1d8fe06-944d-4c22-b717-efb64143253e}, ! Handle
  MAT-CC05 4 HW CONCRETE,                 ! Name
  Rough,                                  ! Roughness
  0.1016,                                 ! Thickness {m}
  1.311,                                  ! Conductivity {W/m-K}
  2240,                                   ! Density {kg/m3}
  836.8,                                  ! Specific Heat {J/kg-K}
  0.9,                                    ! Thermal Absorptance
  0.7,                                    ! Solar Absorptance
  0.7;                                    ! Visible Absorptance

OS:ComponentCost:LineItem,
  {dc9464c0-c955-499d-a17b-92232c06bfc0}, ! Handle
  90.1-2007 Res 7A Ext Slab Unheated - 4in Slab without Carpet, ! Name
  ,                                       ! Type
  Construction,                           ! Line Item Type
  90.1-2007 Res 7A Ext Slab Unheated - 4in Slab without Carpet, ! Item Name
  ,                                       ! Object End Use Key
  ,                                       ! Quantity {dimensionless}
  45.52,                                  ! Material Cost {$}
  CostPerArea;                            ! Material Cost Units

OS:ComponentData,
  {8369c643-e4bf-4f7b-8ac6-ab8b63dee8ce}, ! Handle
  Component Data 1,                       ! Name
  {37895c85-247e-4b8e-b619-83aeb218cbbd}, ! UUID
  {ce353386-5d49-46dc-8ba4-7484d4eaa614}, ! Version UUID
  1363981872,                             ! Creation Timestamp
  1363981872,                             ! Version Timestamp
  {40761c11-985f-46dc-960a-e25b74313d49}, ! Name of Object 1
  {a1d8fe06-944d-4c22-b717-efb64143253e}, ! Name of Object 2
  {dc9464c0-c955-499d-a17b-92232c06bfc0}; ! Name of Object 3

