
OS:Version,
  {b4f1e28d-e614-4ca8-a1ac-bb56bd964469}, ! Handle
  0.9.3;                                  ! Version Identifier

OS:Construction,
  {ead5bcc2-ab91-4c47-bb34-a6d4ad6d0563}, ! Handle
  90.1-2001 Res B8 Ext Wall Steel-Framed, ! Name
  ,                                       ! Surface Rendering Name
  {e3c96070-3edd-4b2a-9789-4c5704c97743}, ! Layer 1
  {f1900eaa-5081-49cd-9059-488a4fe297a7}, ! Layer 2
  {27b0cf2f-6d3c-4bcd-a241-c281430b3657}; ! Layer 3

OS:Material:NoMass,
  {e3c96070-3edd-4b2a-9789-4c5704c97743}, ! Handle
  MAT-SHEATH,                             ! Name
  Rough,                                  ! Roughness
  0.36256,                                ! Thermal Resistance {m2-K/W}
  0.9,                                    ! Thermal Absorptance
  0.7,                                    ! Solar Absorptance
  0.7;                                    ! Visible Absorptance

OS:Material,
  {f1900eaa-5081-49cd-9059-488a4fe297a7}, ! Handle
  Wall Insulation [6],                    ! Name
  MediumRough,                            ! Roughness
  0.0678449,                              ! Thickness {m}
  0.045,                                  ! Conductivity {W/m-K}
  265,                                    ! Density {kg/m3}
  836.8,                                  ! Specific Heat {J/kg-K}
  0.9,                                    ! Thermal Absorptance
  0.7,                                    ! Solar Absorptance
  0.7;                                    ! Visible Absorptance

OS:Material,
  {27b0cf2f-6d3c-4bcd-a241-c281430b3657}, ! Handle
  1/2IN Gypsum,                           ! Name
  Smooth,                                 ! Roughness
  0.01271,                                ! Thickness {m}
  0.16,                                   ! Conductivity {W/m-K}
  784.9,                                  ! Density {kg/m3}
  830,                                    ! Specific Heat {J/kg-K}
  0.9,                                    ! Thermal Absorptance
  0.92,                                   ! Solar Absorptance
  0.92;                                   ! Visible Absorptance

OS:ComponentCost:LineItem,
  {8e572bfa-d2cc-4272-bdce-4bf4c90ab702}, ! Handle
  90.1-2001 Res B8 Ext Wall Steel-Framed, ! Name
  ,                                       ! Type
  Construction,                           ! Line Item Type
  90.1-2001 Res B8 Ext Wall Steel-Framed, ! Item Name
  ,                                       ! Object End Use Key
  ,                                       ! Quantity {dimensionless}
  91.749,                                 ! Material Cost {$}
  CostPerArea;                            ! Material Cost Units

OS:ComponentData,
  {dd5d9292-1587-43a0-b81a-6af8af5d7b8b}, ! Handle
  Component Data 1,                       ! Name
  {a1d05676-0b6a-43ad-9f58-7d8075d9aa13}, ! UUID
  {eb83291b-5bcb-4ae2-b8b9-fe425ccdb342}, ! Version UUID
  1363981489,                             ! Creation Timestamp
  1363981489,                             ! Version Timestamp
  {ead5bcc2-ab91-4c47-bb34-a6d4ad6d0563}, ! Name of Object 1
  {e3c96070-3edd-4b2a-9789-4c5704c97743}, ! Name of Object 2
  {f1900eaa-5081-49cd-9059-488a4fe297a7}, ! Name of Object 3
  {27b0cf2f-6d3c-4bcd-a241-c281430b3657}, ! Name of Object 4
  {8e572bfa-d2cc-4272-bdce-4bf4c90ab702}; ! Name of Object 5

