
OS:Version,
  {58c756ad-e5e0-4bae-8222-c2a6ead555dc}, ! Handle
  0.9.3;                                  ! Version Identifier

OS:Material,
  {5be12752-a158-408f-87f9-a9dec260fce7}, ! Handle
  1/2IN Gypsum,                           ! Name
  Smooth,                                 ! Roughness
  0.01271,                                ! Thickness {m}
  0.16,                                   ! Conductivity {W/m-K}
  784.9,                                  ! Density {kg/m3}
  830,                                    ! Specific Heat {J/kg-K}
  0.9,                                    ! Thermal Absorptance
  0.92,                                   ! Solar Absorptance
  0.92;                                   ! Visible Absorptance

OS:Construction,
  {75f57612-0057-44aa-9b6b-776b3ab59ef2}, ! Handle
  90.1-2001 Res B8 Ext Wall Steel-Framed, ! Name
  ,                                       ! Surface Rendering Name
  {6887a90d-e738-4149-afa3-cd9172034d32}, ! Layer 1
  {9c7e92e9-2114-450d-b69d-8af55ada43d9}, ! Layer 2
  {5be12752-a158-408f-87f9-a9dec260fce7}; ! Layer 3

OS:Material:NoMass,
  {6887a90d-e738-4149-afa3-cd9172034d32}, ! Handle
  MAT-SHEATH,                             ! Name
  Rough,                                  ! Roughness
  0.36256,                                ! Thermal Resistance {m2-K/W}
  0.9,                                    ! Thermal Absorptance
  0.7,                                    ! Solar Absorptance
  0.7;                                    ! Visible Absorptance

OS:Material,
  {9c7e92e9-2114-450d-b69d-8af55ada43d9}, ! Handle
  Wall Insulation [6],                    ! Name
  MediumRough,                            ! Roughness
  0.0678449,                              ! Thickness {m}
  0.045,                                  ! Conductivity {W/m-K}
  265,                                    ! Density {kg/m3}
  836.8,                                  ! Specific Heat {J/kg-K}
  0.9,                                    ! Thermal Absorptance
  0.7,                                    ! Solar Absorptance
  0.7;                                    ! Visible Absorptance

OS:ComponentCost:LineItem,
  {33555478-7840-455a-a00d-ee559cf3294b}, ! Handle
  90.1-2001 Res B8 Ext Wall Steel-Framed, ! Name
  ,                                       ! Type
  Construction,                           ! Line Item Type
  90.1-2001 Res B8 Ext Wall Steel-Framed, ! Item Name
  ,                                       ! Object End Use Key
  ,                                       ! Quantity {dimensionless}
  91.749,                                 ! Material Cost {$}
  CostPerArea;                            ! Material Cost Units

