
OS:Version,
  {35dab044-77c7-4ce7-835c-45ff4927107c}, ! Handle
  0.9.3;                                  ! Version Identifier

OS:Material:NoMass,
  {01e1d785-05ee-4644-a95d-3c7f7298ac2b}, ! Handle
  MAT-SHEATH,                             ! Name
  Rough,                                  ! Roughness
  0.36256,                                ! Thermal Resistance {m2-K/W}
  0.9,                                    ! Thermal Absorptance
  0.7,                                    ! Solar Absorptance
  0.7;                                    ! Visible Absorptance

OS:Material,
  {7ba3d923-62af-4cca-8eab-ec1b708840b0}, ! Handle
  Wall Insulation [159],                  ! Name
  MediumRough,                            ! Roughness
  0.0812,                                 ! Thickness {m}
  0.045,                                  ! Conductivity {W/m-K}
  265,                                    ! Density {kg/m3}
  836.8,                                  ! Specific Heat {J/kg-K}
  0.9,                                    ! Thermal Absorptance
  0.7,                                    ! Solar Absorptance
  0.7;                                    ! Visible Absorptance

OS:ComponentCost:LineItem,
  {320edecd-13b8-45c7-8235-9755b594209c}, ! Handle
  Title 24-2008 Nonres 8 Ext Wall Steel-Framed, ! Name
  ,                                       ! Type
  Construction,                           ! Line Item Type
  Title 24-2008 Nonres 8 Ext Wall Steel-Framed, ! Item Name
  ,                                       ! Object End Use Key
  ,                                       ! Quantity {dimensionless}
  155.805,                                ! Material Cost {$}
  CostPerArea;                            ! Material Cost Units

OS:Construction,
  {12f2a702-d3e4-4faa-9b71-589bc2cb95bb}, ! Handle
  Title 24-2008 Nonres 8 Ext Wall Steel-Framed, ! Name
  ,                                       ! Surface Rendering Name
  {01e1d785-05ee-4644-a95d-3c7f7298ac2b}, ! Layer 1
  {7ba3d923-62af-4cca-8eab-ec1b708840b0}, ! Layer 2
  {f6e50b32-56f3-4cab-b201-7145d8d58b3c}; ! Layer 3

OS:Material,
  {f6e50b32-56f3-4cab-b201-7145d8d58b3c}, ! Handle
  1/2IN Gypsum,                           ! Name
  Smooth,                                 ! Roughness
  0.01271,                                ! Thickness {m}
  0.16,                                   ! Conductivity {W/m-K}
  784.9,                                  ! Density {kg/m3}
  830,                                    ! Specific Heat {J/kg-K}
  0.9,                                    ! Thermal Absorptance
  0.92,                                   ! Solar Absorptance
  0.92;                                   ! Visible Absorptance

