
OS:Version,
  {a812f3ba-088f-4f04-9167-6d62e7c5e78a}, ! Handle
  0.9.3;                                  ! Version Identifier

OS:Material,
  {61b34966-5043-4a0c-912f-c1999f086932}, ! Handle
  GP01 1/2 GYPSUM 1,                      ! Name
  Smooth,                                 ! Roughness
  0.01271,                                ! Thickness {m}
  0.16,                                   ! Conductivity {W/m-K}
  800,                                    ! Density {kg/m3}
  1090,                                   ! Specific Heat {J/kg-K}
  0.9,                                    ! Thermal Absorptance
  0.7,                                    ! Solar Absorptance
  0.5;                                    ! Visible Absorptance

OS:Material,
  {3e520720-f1af-4351-af08-9971ebeb1f17}, ! Handle
  GP01 1/2 GYPSUM,                        ! Name
  Smooth,                                 ! Roughness
  0.01271,                                ! Thickness {m}
  0.16,                                   ! Conductivity {W/m-K}
  800,                                    ! Density {kg/m3}
  1090,                                   ! Specific Heat {J/kg-K}
  0.9,                                    ! Thermal Absorptance
  0.7,                                    ! Solar Absorptance
  0.5;                                    ! Visible Absorptance

OS:ComponentCost:LineItem,
  {ad759197-7ae1-4e37-9e8f-5506f8da5e39}, ! Handle
  90.1-2007 Nonres 8A Int Wall,           ! Name
  ,                                       ! Type
  Construction,                           ! Line Item Type
  90.1-2007 Nonres 8A Int Wall,           ! Item Name
  ,                                       ! Object End Use Key
  ,                                       ! Quantity {dimensionless}
  0,                                      ! Material Cost {$}
  CostPerArea;                            ! Material Cost Units

OS:Construction,
  {94691cdd-5359-4a23-a7bc-d4992195a2d4}, ! Handle
  90.1-2007 Nonres 8A Int Wall,           ! Name
  ,                                       ! Surface Rendering Name
  {3e520720-f1af-4351-af08-9971ebeb1f17}, ! Layer 1
  {3e520720-f1af-4351-af08-9971ebeb1f17}; ! Layer 2

