
OS:Version,
  {9c3fdbef-b89f-43bb-a92d-1e8a38f646d9}, ! Handle
  0.9.3;                                  ! Version Identifier

OS:ComponentCost:LineItem,
  {8d23cd89-3c04-4e16-8f0e-5621cd43abe3}, ! Handle
  90.1-2001 Res B6 Window Fixed,          ! Name
  ,                                       ! Type
  Construction,                           ! Line Item Type
  90.1-2001 Res B6 Window Fixed,          ! Item Name
  ,                                       ! Object End Use Key
  ,                                       ! Quantity {dimensionless}
  486.627,                                ! Material Cost {$}
  CostPerArea;                            ! Material Cost Units

OS:Construction,
  {348d399f-73bf-4afd-8b2b-a2bb8f6ef404}, ! Handle
  90.1-2001 Res B6 Window Fixed,          ! Name
  ,                                       ! Surface Rendering Name
  {f6d46c6f-ec3f-453e-bc07-88c6210097ed}; ! Layer 1

OS:WindowMaterial:Glazing,
  {f6d46c6f-ec3f-453e-bc07-88c6210097ed}, ! Handle
  Theoretical Glass [73],                 ! Name
  SpectralAverage,                        ! Optical Data Type
  ,                                       ! Window Glass Spectral Data Set Name
  0.003,                                  ! Thickness {m}
  0.395963,                               ! Solar Transmittance at Normal Incidence
  0.554037,                               ! Front Side Solar Reflectance at Normal Incidence
  0.554037,                               ! Back Side Solar Reflectance at Normal Incidence
  0.410537,                               ! Visible Transmittance at Normal Incidence
  0.539463,                               ! Front Side Visible Reflectance at Normal Incidence
  0.539463,                               ! Back Side Visible Reflectance at Normal Incidence
  0,                                      ! Infrared Transmittance at Normal Incidence
  0.999,                                  ! Front Side Infrared Hemispherical Emissivity
  0.999,                                  ! Back Side Infrared Hemispherical Emissivity
  9.36219;                                ! Conductivity {W/m-K}

