
OS:Version,
  {e17447e8-574b-4882-b8c7-41f98f122376}, ! Handle
  0.9.3;                                  ! Version Identifier

OS:Construction,
  {c8d4ba80-1977-48d6-9c06-06a48071b017}, ! Handle
  90.1-2001 Res B12 Window Fixed,         ! Name
  ,                                       ! Surface Rendering Name
  {c6d5e432-1ba7-48d9-9720-aa8e27599b82}; ! Layer 1

OS:WindowMaterial:Glazing,
  {c6d5e432-1ba7-48d9-9720-aa8e27599b82}, ! Handle
  Theoretical Glass [89],                 ! Name
  SpectralAverage,                        ! Optical Data Type
  ,                                       ! Window Glass Spectral Data Set Name
  0.003,                                  ! Thickness {m}
  0.702293,                               ! Solar Transmittance at Normal Incidence
  0.247707,                               ! Front Side Solar Reflectance at Normal Incidence
  0.247707,                               ! Back Side Solar Reflectance at Normal Incidence
  0.719298,                               ! Visible Transmittance at Normal Incidence
  0.230702,                               ! Front Side Visible Reflectance at Normal Incidence
  0.230702,                               ! Back Side Visible Reflectance at Normal Incidence
  0,                                      ! Infrared Transmittance at Normal Incidence
  0.9,                                    ! Front Side Infrared Hemispherical Emissivity
  0.9,                                    ! Back Side Infrared Hemispherical Emissivity
  0.0381546;                              ! Conductivity {W/m-K}

OS:ComponentCost:LineItem,
  {35f5bcf4-7d9b-409a-b240-49f965d66e83}, ! Handle
  90.1-2001 Res B12 Window Fixed,         ! Name
  ,                                       ! Type
  Construction,                           ! Line Item Type
  90.1-2001 Res B12 Window Fixed,         ! Item Name
  ,                                       ! Object End Use Key
  ,                                       ! Quantity {dimensionless}
  477.696,                                ! Material Cost {$}
  CostPerArea;                            ! Material Cost Units

