
OS:Version,
  {b3137643-cb94-4b9f-86a1-129e5402d413}, ! Handle
  0.9.3;                                  ! Version Identifier

OS:Material,
  {f21df4c1-ad63-4ef3-8e5c-3e34f7c7b22b}, ! Handle
  1/2IN Gypsum Top,                       ! Name
  Smooth,                                 ! Roughness
  0.01271,                                ! Thickness {m}
  0.16,                                   ! Conductivity {W/m-K}
  784.9,                                  ! Density {kg/m3}
  830,                                    ! Specific Heat {J/kg-K}
  0.9,                                    ! Thermal Absorptance
  0.92,                                   ! Solar Absorptance
  0.92;                                   ! Visible Absorptance

OS:Material,
  {085ba340-7348-42e6-9fee-57d40673661f}, ! Handle
  AtticFloor Insulation [1],              ! Name
  MediumRough,                            ! Roughness
  0.303719,                               ! Thickness {m}
  0.049,                                  ! Conductivity {W/m-K}
  265,                                    ! Density {kg/m3}
  836.8,                                  ! Specific Heat {J/kg-K}
  0.9,                                    ! Thermal Absorptance
  0.7,                                    ! Solar Absorptance
  0.7;                                    ! Visible Absorptance

OS:Material,
  {2d410b74-a07c-4881-a7f3-0f10d7192cb9}, ! Handle
  1/2IN Gypsum Bottom,                    ! Name
  Smooth,                                 ! Roughness
  0.01271,                                ! Thickness {m}
  0.16,                                   ! Conductivity {W/m-K}
  784.9,                                  ! Density {kg/m3}
  830,                                    ! Specific Heat {J/kg-K}
  0.9,                                    ! Thermal Absorptance
  0.92,                                   ! Solar Absorptance
  0.92;                                   ! Visible Absorptance

OS:ComponentCost:LineItem,
  {6fac673a-5ede-4d43-b5b0-4e1508376222}, ! Handle
  90.1-2004 Res 6B Attic Floor,           ! Name
  ,                                       ! Type
  Construction,                           ! Line Item Type
  90.1-2004 Res 6B Attic Floor,           ! Item Name
  ,                                       ! Object End Use Key
  ,                                       ! Quantity {dimensionless}
  35.009,                                 ! Material Cost {$}
  CostPerArea;                            ! Material Cost Units

OS:Construction,
  {ca017999-f91f-4b5d-a80d-7f2c789edc57}, ! Handle
  90.1-2004 Res 6B Attic Floor,           ! Name
  ,                                       ! Surface Rendering Name
  {f21df4c1-ad63-4ef3-8e5c-3e34f7c7b22b}, ! Layer 1
  {085ba340-7348-42e6-9fee-57d40673661f}, ! Layer 2
  {2d410b74-a07c-4881-a7f3-0f10d7192cb9}; ! Layer 3

