
OS:Version,
  {9ae2568d-f109-4b4e-a9b2-e2eef1fd4ff6}, ! Handle
  0.9.3;                                  ! Version Identifier

OS:ComponentCost:LineItem,
  {e808214e-aa93-46a6-8846-d1050440a3ff}, ! Handle
  189.1-2009 Nonres 7A Int Wall,          ! Name
  ,                                       ! Type
  Construction,                           ! Line Item Type
  189.1-2009 Nonres 7A Int Wall,          ! Item Name
  ,                                       ! Object End Use Key
  ,                                       ! Quantity {dimensionless}
  0,                                      ! Material Cost {$}
  CostPerArea;                            ! Material Cost Units

OS:Construction,
  {14d3ff30-0fe0-42c1-a94a-bee7192b9a89}, ! Handle
  189.1-2009 Nonres 7A Int Wall,          ! Name
  ,                                       ! Surface Rendering Name
  {1f186aac-b2e8-4429-92d2-83315c7796ff}, ! Layer 1
  {1f186aac-b2e8-4429-92d2-83315c7796ff}; ! Layer 2

OS:Material,
  {1f186aac-b2e8-4429-92d2-83315c7796ff}, ! Handle
  GP01 1/2 GYPSUM,                        ! Name
  Smooth,                                 ! Roughness
  0.01271,                                ! Thickness {m}
  0.16,                                   ! Conductivity {W/m-K}
  800,                                    ! Density {kg/m3}
  1090,                                   ! Specific Heat {J/kg-K}
  0.9,                                    ! Thermal Absorptance
  0.7,                                    ! Solar Absorptance
  0.5;                                    ! Visible Absorptance

OS:Material,
  {3243b305-64af-4d99-b72e-3cc40a60ddc3}, ! Handle
  GP01 1/2 GYPSUM 1,                      ! Name
  Smooth,                                 ! Roughness
  0.01271,                                ! Thickness {m}
  0.16,                                   ! Conductivity {W/m-K}
  800,                                    ! Density {kg/m3}
  1090,                                   ! Specific Heat {J/kg-K}
  0.9,                                    ! Thermal Absorptance
  0.7,                                    ! Solar Absorptance
  0.5;                                    ! Visible Absorptance

