
OS:Version,
  {10d5710c-8ca0-4723-a28b-456c559cde8b}, ! Handle
  0.9.3;                                  ! Version Identifier

OS:ComponentCost:LineItem,
  {a57e7d0f-eef1-4c7e-a6d7-d94fdfc0623e}, ! Handle
  90.1-1999 Nonres B15 Roof IEAD,         ! Name
  ,                                       ! Type
  Construction,                           ! Line Item Type
  90.1-1999 Nonres B15 Roof IEAD,         ! Item Name
  ,                                       ! Object End Use Key
  ,                                       ! Quantity {dimensionless}
  49.208,                                 ! Material Cost {$}
  CostPerArea;                            ! Material Cost Units

OS:Material,
  {6b9eb933-4a40-4a69-85c8-fbcaae2cd6f1}, ! Handle
  Metal Decking,                          ! Name
  MediumSmooth,                           ! Roughness
  0.001524,                               ! Thickness {m}
  45.006,                                 ! Conductivity {W/m-K}
  7680,                                   ! Density {kg/m3}
  418.4,                                  ! Specific Heat {J/kg-K}
  0.9,                                    ! Thermal Absorptance
  0.7,                                    ! Solar Absorptance
  0.3;                                    ! Visible Absorptance

OS:Material,
  {e190b584-4117-4cf9-8524-7a88ca3b94c5}, ! Handle
  Roof Membrane,                          ! Name
  VeryRough,                              ! Roughness
  0.0095,                                 ! Thickness {m}
  0.16,                                   ! Conductivity {W/m-K}
  1121.29,                                ! Density {kg/m3}
  1460,                                   ! Specific Heat {J/kg-K}
  0.9,                                    ! Thermal Absorptance
  0.7,                                    ! Solar Absorptance
  0.7;                                    ! Visible Absorptance

OS:Construction,
  {96c78f99-05f6-4e37-946a-b5ecebc27616}, ! Handle
  90.1-1999 Nonres B15 Roof IEAD,         ! Name
  ,                                       ! Surface Rendering Name
  {e190b584-4117-4cf9-8524-7a88ca3b94c5}, ! Layer 1
  {df6dfa03-aa1e-4570-8458-cd0f32e0ad84}, ! Layer 2
  {6b9eb933-4a40-4a69-85c8-fbcaae2cd6f1}; ! Layer 3

OS:Material,
  {df6dfa03-aa1e-4570-8458-cd0f32e0ad84}, ! Handle
  Roof Insulation,                        ! Name
  MediumRough,                            ! Roughness
  0.124958,                               ! Thickness {m}
  0.049,                                  ! Conductivity {W/m-K}
  265,                                    ! Density {kg/m3}
  836.8,                                  ! Specific Heat {J/kg-K}
  0.9,                                    ! Thermal Absorptance
  0.7,                                    ! Solar Absorptance
  0.7;                                    ! Visible Absorptance

