
OS:Version,
  {1005f89c-0f77-46f3-9494-45c4a1a6d50d}, ! Handle
  0.9.3;                                  ! Version Identifier

OS:Construction,
  {cbc2d911-da7d-4827-a227-5c05ed3d5f32}, ! Handle
  90.1-1999 Nonres B15 Roof IEAD,         ! Name
  ,                                       ! Surface Rendering Name
  {fd907fe9-3297-4f47-b479-60ba6066294e}, ! Layer 1
  {6dddd5b5-ce11-4082-bd7e-d781b6203260}, ! Layer 2
  {314aaa3d-ea5b-4728-868c-c9a5d1ac8cf2}; ! Layer 3

OS:Material,
  {fd907fe9-3297-4f47-b479-60ba6066294e}, ! Handle
  Roof Membrane,                          ! Name
  VeryRough,                              ! Roughness
  0.0095,                                 ! Thickness {m}
  0.16,                                   ! Conductivity {W/m-K}
  1121.29,                                ! Density {kg/m3}
  1460,                                   ! Specific Heat {J/kg-K}
  0.9,                                    ! Thermal Absorptance
  0.7,                                    ! Solar Absorptance
  0.7;                                    ! Visible Absorptance

OS:Material,
  {6dddd5b5-ce11-4082-bd7e-d781b6203260}, ! Handle
  Roof Insulation,                        ! Name
  MediumRough,                            ! Roughness
  0.124958,                               ! Thickness {m}
  0.049,                                  ! Conductivity {W/m-K}
  265,                                    ! Density {kg/m3}
  836.8,                                  ! Specific Heat {J/kg-K}
  0.9,                                    ! Thermal Absorptance
  0.7,                                    ! Solar Absorptance
  0.7;                                    ! Visible Absorptance

OS:Material,
  {314aaa3d-ea5b-4728-868c-c9a5d1ac8cf2}, ! Handle
  Metal Decking,                          ! Name
  MediumSmooth,                           ! Roughness
  0.001524,                               ! Thickness {m}
  45.006,                                 ! Conductivity {W/m-K}
  7680,                                   ! Density {kg/m3}
  418.4,                                  ! Specific Heat {J/kg-K}
  0.9,                                    ! Thermal Absorptance
  0.7,                                    ! Solar Absorptance
  0.3;                                    ! Visible Absorptance

OS:ComponentCost:LineItem,
  {781b6357-ebf2-43e5-97cb-2ca4f990f841}, ! Handle
  90.1-1999 Nonres B15 Roof IEAD,         ! Name
  ,                                       ! Type
  Construction,                           ! Line Item Type
  90.1-1999 Nonres B15 Roof IEAD,         ! Item Name
  ,                                       ! Object End Use Key
  ,                                       ! Quantity {dimensionless}
  49.208,                                 ! Material Cost {$}
  CostPerArea;                            ! Material Cost Units

OS:ComponentData,
  {60a407b8-f42b-4ffc-b5b9-c6544d506b5e}, ! Handle
  Component Data 1,                       ! Name
  {87e4d47c-e38b-448d-93dd-4f93b4352521}, ! UUID
  {3642cd5e-8f4e-429f-8a88-a6db11f2b1dc}, ! Version UUID
  1363981104,                             ! Creation Timestamp
  1363981104,                             ! Version Timestamp
  {cbc2d911-da7d-4827-a227-5c05ed3d5f32}, ! Name of Object 1
  {fd907fe9-3297-4f47-b479-60ba6066294e}, ! Name of Object 2
  {6dddd5b5-ce11-4082-bd7e-d781b6203260}, ! Name of Object 3
  {314aaa3d-ea5b-4728-868c-c9a5d1ac8cf2}, ! Name of Object 4
  {781b6357-ebf2-43e5-97cb-2ca4f990f841}; ! Name of Object 5

