
OS:Version,
  {1eec2605-bd0a-4d15-8b95-a34bb78209da}, ! Handle
  0.9.3;                                  ! Version Identifier

OS:Construction,
  {e5ad2495-f3f9-411d-a5b1-c615a03e5d30}, ! Handle
  Title 24-2008 Nonres 14 Int Wall,       ! Name
  ,                                       ! Surface Rendering Name
  {b0b1f616-be8c-4740-a49a-a6874a2fb2b2}, ! Layer 1
  {b0b1f616-be8c-4740-a49a-a6874a2fb2b2}; ! Layer 2

OS:Material,
  {b0b1f616-be8c-4740-a49a-a6874a2fb2b2}, ! Handle
  GP01 1/2 GYPSUM,                        ! Name
  Smooth,                                 ! Roughness
  0.01271,                                ! Thickness {m}
  0.16,                                   ! Conductivity {W/m-K}
  800,                                    ! Density {kg/m3}
  1090,                                   ! Specific Heat {J/kg-K}
  0.9,                                    ! Thermal Absorptance
  0.7,                                    ! Solar Absorptance
  0.5;                                    ! Visible Absorptance

OS:ComponentCost:LineItem,
  {94b39ae3-edeb-431d-b5ce-3b0a47afc305}, ! Handle
  Title 24-2008 Nonres 14 Int Wall,       ! Name
  ,                                       ! Type
  Construction,                           ! Line Item Type
  Title 24-2008 Nonres 14 Int Wall,       ! Item Name
  ,                                       ! Object End Use Key
  ,                                       ! Quantity {dimensionless}
  0,                                      ! Material Cost {$}
  CostPerArea;                            ! Material Cost Units

OS:Material,
  {ec5b0d80-c3c2-4afe-80a0-318753ed0a06}, ! Handle
  GP01 1/2 GYPSUM 1,                      ! Name
  Smooth,                                 ! Roughness
  0.01271,                                ! Thickness {m}
  0.16,                                   ! Conductivity {W/m-K}
  800,                                    ! Density {kg/m3}
  1090,                                   ! Specific Heat {J/kg-K}
  0.9,                                    ! Thermal Absorptance
  0.7,                                    ! Solar Absorptance
  0.5;                                    ! Visible Absorptance

