
! 
OS:Version,
  {9c37d538-db0d-4a47-9850-5bede7e76bd5}, !- Handle
  1.13.0;                                 !- Version Identifier


! {"nombreProductoCorto": "CLIMALIT PLUS con PLANITHERM 4S  F2 6 (16 argon90%) 4", "codigoEAN": "", "handle": "3d8998de-4f13-449a-bb92-2bbed38a7ab4", "g": 0.42, "tV": 0.65, "u": 1.0, "nombreProducto": "CLIMALIT PLUS con PLANITHERM 4S  F2 6 (16 argon90%) 4\nU:1.0 W/m2K - g:0.42 - Tv: 0.65"}
OS:WindowMaterial:SimpleGlazingSystem,
  {3d8998de-4f13-449a-bb92-2bbed38a7ab4}, !- Handle
  CLIMALIT PLUS con PLANITHERM 4S  F2 6 (16 argon90%) 4, !- Name
  1.0,                                    !- U-Factor {W/m2-K}
  0.42,                                    !- Solar Heat Gain Coefficient
  0.65;                                    !- Visible Transmittance     
  
  
OS:Construction,
  {2e7159c0-8021-4aa6-b376-76feb3638f41}, !- Handle
  CLIMALIT PLUS con PLANITHERM 4S  F2 6 (16 argon90%) 4,                         !- Name
  ,                                       !- Surface Rendering Name
  {3d8998de-4f13-449a-bb92-2bbed38a7ab4}; !- Layer 1  

