
OS:Version,
  {f7c524af-c72c-47e7-a1a1-ca5fef7b5e01}, ! Handle
  0.9.3;                                  ! Version Identifier

OS:Construction,
  {20497c77-9a52-45d1-8a95-3b8fadd66c47}, ! Handle
  90.1-2004 Nonres 3A Skylight without Curb, ! Name
  ,                                       ! Surface Rendering Name
  {933035c9-6c4e-4f55-9905-701a432888f9}; ! Layer 1

OS:WindowMaterial:Glazing,
  {933035c9-6c4e-4f55-9905-701a432888f9}, ! Handle
  Theoretical Glass [128],                ! Name
  SpectralAverage,                        ! Optical Data Type
  ,                                       ! Window Glass Spectral Data Set Name
  0.003,                                  ! Thickness {m}
  0.346104,                               ! Solar Transmittance at Normal Incidence
  0.603896,                               ! Front Side Solar Reflectance at Normal Incidence
  0.603896,                               ! Back Side Solar Reflectance at Normal Incidence
  0.457336,                               ! Visible Transmittance at Normal Incidence
  0.492664,                               ! Front Side Visible Reflectance at Normal Incidence
  0.492664,                               ! Back Side Visible Reflectance at Normal Incidence
  0,                                      ! Infrared Transmittance at Normal Incidence
  0.999,                                  ! Front Side Infrared Hemispherical Emissivity
  0.999,                                  ! Back Side Infrared Hemispherical Emissivity
  299.383;                                ! Conductivity {W/m-K}

OS:ComponentCost:LineItem,
  {2ac37ee9-5db5-4d31-aed9-1c8aab2de1af}, ! Handle
  90.1-2004 Nonres 3A Skylight without Curb, ! Name
  ,                                       ! Type
  Construction,                           ! Line Item Type
  90.1-2004 Nonres 3A Skylight without Curb, ! Item Name
  ,                                       ! Object End Use Key
  ,                                       ! Quantity {dimensionless}
  498.248,                                ! Material Cost {$}
  CostPerArea;                            ! Material Cost Units

