
OS:Version,
  {a6a3e320-f6a4-4920-a6e3-61eeaed35fb5}, ! Handle
  0.9.3;                                  ! Version Identifier

OS:Construction,
  {d92d98b4-9397-4cc3-80a3-4206f71ae442}, ! Handle
  Title 24-2008 Nonres 4 Exposed Floor Mass, ! Name
  ,                                       ! Surface Rendering Name
  {7f98d3ac-9d1b-4988-82ab-d5c6686c6232}, ! Layer 1
  {e8389d1c-474e-435b-8772-ca465361461e}, ! Layer 2
  {c07be4a6-756c-413b-afac-256185080792}; ! Layer 3

OS:Material,
  {7f98d3ac-9d1b-4988-82ab-d5c6686c6232}, ! Handle
  Floor Insulation [56],                  ! Name
  MediumRough,                            ! Roughness
  0.0018265,                              ! Thickness {m}
  0.045,                                  ! Conductivity {W/m-K}
  265,                                    ! Density {kg/m3}
  836.8,                                  ! Specific Heat {J/kg-K}
  0.9,                                    ! Thermal Absorptance
  0.7,                                    ! Solar Absorptance
  0.7;                                    ! Visible Absorptance

OS:Material,
  {e8389d1c-474e-435b-8772-ca465361461e}, ! Handle
  MAT-CC05 8 HW CONCRETE,                 ! Name
  Rough,                                  ! Roughness
  0.20321,                                ! Thickness {m}
  1.311,                                  ! Conductivity {W/m-K}
  2240,                                   ! Density {kg/m3}
  836.8,                                  ! Specific Heat {J/kg-K}
  0.9,                                    ! Thermal Absorptance
  0.7,                                    ! Solar Absorptance
  0.7;                                    ! Visible Absorptance

OS:Material:NoMass,
  {c07be4a6-756c-413b-afac-256185080792}, ! Handle
  CP02 CARPET PAD,                        ! Name
  VeryRough,                              ! Roughness
  0.21648,                                ! Thermal Resistance {m2-K/W}
  0.9,                                    ! Thermal Absorptance
  0.7,                                    ! Solar Absorptance
  0.8;                                    ! Visible Absorptance

OS:ComponentCost:LineItem,
  {1dbb22d5-ee18-428a-a172-a3bd68f08603}, ! Handle
  Title 24-2008 Nonres 4 Exposed Floor Mass, ! Name
  ,                                       ! Type
  Construction,                           ! Line Item Type
  Title 24-2008 Nonres 4 Exposed Floor Mass, ! Item Name
  ,                                       ! Object End Use Key
  ,                                       ! Quantity {dimensionless}
  40.432,                                 ! Material Cost {$}
  CostPerArea;                            ! Material Cost Units

