
OS:Version,
  {f12d00d3-87e5-4520-b25b-ef023c214971}, ! Handle
  0.9.3;                                  ! Version Identifier

OS:Construction,
  {158f9ad3-3c65-4def-8dce-a3fd67623762}, ! Handle
  90.1 Constructions Roof Metal Building R-16.0, ! Name
  ,                                       ! Surface Rendering Name
  {49f7f623-5f6f-45b1-bc01-fab708378e1b}, ! Layer 1
  {0f721781-9c11-4231-a069-768ae9237365}; ! Layer 2

OS:Material,
  {49f7f623-5f6f-45b1-bc01-fab708378e1b}, ! Handle
  Metal Roofing,                          ! Name
  MediumSmooth,                           ! Roughness
  0.001524,                               ! Thickness {m}
  45.006,                                 ! Conductivity {W/m-K}
  7680,                                   ! Density {kg/m3}
  418.4,                                  ! Specific Heat {J/kg-K}
  0.9,                                    ! Thermal Absorptance
  0.7,                                    ! Solar Absorptance
  0.3;                                    ! Visible Absorptance

OS:Material,
  {0f721781-9c11-4231-a069-768ae9237365}, ! Handle
  Roof Insulation [4],                    ! Name
  MediumRough,                            ! Roughness
  0.110636,                               ! Thickness {m}
  0.049,                                  ! Conductivity {W/m-K}
  265,                                    ! Density {kg/m3}
  836.8,                                  ! Specific Heat {J/kg-K}
  0.9,                                    ! Thermal Absorptance
  0.7,                                    ! Solar Absorptance
  0.7;                                    ! Visible Absorptance

OS:ComponentCost:LineItem,
  {5e866ee4-c768-4868-b545-cf0adc26b14b}, ! Handle
  90.1 Constructions Roof Metal Building R-16.0, ! Name
  ,                                       ! Type
  Construction,                           ! Line Item Type
  90.1 Constructions Roof Metal Building R-16.0, ! Item Name
  ,                                       ! Object End Use Key
  ,                                       ! Quantity {dimensionless}
  37.342,                                 ! Material Cost {$}
  CostPerArea;                            ! Material Cost Units

OS:ComponentData,
  {91e15510-41a8-4b5a-a33f-b3fbfce0e024}, ! Handle
  Component Data 1,                       ! Name
  {dd0212a2-464b-46b5-a7f7-8d8ad3a59828}, ! UUID
  {414626c3-b743-48bc-ae45-403dc8bf6752}, ! Version UUID
  1363980997,                             ! Creation Timestamp
  1363980997,                             ! Version Timestamp
  {158f9ad3-3c65-4def-8dce-a3fd67623762}, ! Name of Object 1
  {49f7f623-5f6f-45b1-bc01-fab708378e1b}, ! Name of Object 2
  {0f721781-9c11-4231-a069-768ae9237365}, ! Name of Object 3
  {5e866ee4-c768-4868-b545-cf0adc26b14b}; ! Name of Object 4

