
OS:Version,
  {4a10d72d-599d-407c-a887-4ef93267979c}, ! Handle
  0.9.3;                                  ! Version Identifier

OS:Construction,
  {95bc5757-e8d0-4626-bdce-94d76472733c}, ! Handle
  90.1 Constructions Roof Metal Building R-16.0, ! Name
  ,                                       ! Surface Rendering Name
  {e25a0ff2-e8dd-46bb-b036-b614e090cc05}, ! Layer 1
  {33c5d6b7-1ac5-4078-baf1-7187a2f1acae}; ! Layer 2

OS:Material,
  {e25a0ff2-e8dd-46bb-b036-b614e090cc05}, ! Handle
  Metal Roofing,                          ! Name
  MediumSmooth,                           ! Roughness
  0.001524,                               ! Thickness {m}
  45.006,                                 ! Conductivity {W/m-K}
  7680,                                   ! Density {kg/m3}
  418.4,                                  ! Specific Heat {J/kg-K}
  0.9,                                    ! Thermal Absorptance
  0.7,                                    ! Solar Absorptance
  0.3;                                    ! Visible Absorptance

OS:Material,
  {33c5d6b7-1ac5-4078-baf1-7187a2f1acae}, ! Handle
  Roof Insulation [4],                    ! Name
  MediumRough,                            ! Roughness
  0.110636,                               ! Thickness {m}
  0.049,                                  ! Conductivity {W/m-K}
  265,                                    ! Density {kg/m3}
  836.8,                                  ! Specific Heat {J/kg-K}
  0.9,                                    ! Thermal Absorptance
  0.7,                                    ! Solar Absorptance
  0.7;                                    ! Visible Absorptance

OS:ComponentCost:LineItem,
  {0d0dff98-04ca-4def-82e3-739b8eed585a}, ! Handle
  90.1 Constructions Roof Metal Building R-16.0, ! Name
  ,                                       ! Type
  Construction,                           ! Line Item Type
  90.1 Constructions Roof Metal Building R-16.0, ! Item Name
  ,                                       ! Object End Use Key
  ,                                       ! Quantity {dimensionless}
  37.342,                                 ! Material Cost {$}
  CostPerArea;                            ! Material Cost Units

