
OS:Version,
  {34c78db8-ff04-421f-b6e8-174155d314f8}, ! Handle
  0.9.3;                                  ! Version Identifier

OS:Material:NoMass,
  {37fa6abb-da7b-4350-8364-d1c48a839cd5}, ! Handle
  MAT-SHEATH,                             ! Name
  Rough,                                  ! Roughness
  0.36256,                                ! Thermal Resistance {m2-K/W}
  0.9,                                    ! Thermal Absorptance
  0.7,                                    ! Solar Absorptance
  0.7;                                    ! Visible Absorptance

OS:Material,
  {743ddcb0-50eb-4832-9da1-0e3fa90c0e39}, ! Handle
  1/2IN Gypsum,                           ! Name
  Smooth,                                 ! Roughness
  0.01271,                                ! Thickness {m}
  0.16,                                   ! Conductivity {W/m-K}
  784.9,                                  ! Density {kg/m3}
  830,                                    ! Specific Heat {J/kg-K}
  0.9,                                    ! Thermal Absorptance
  0.92,                                   ! Solar Absorptance
  0.92;                                   ! Visible Absorptance

OS:Material,
  {e3ec6669-b3d6-46cd-99ee-0525a7b523b9}, ! Handle
  Wall Insulation [1],                    ! Name
  MediumRough,                            ! Roughness
  0.0373223,                              ! Thickness {m}
  0.045,                                  ! Conductivity {W/m-K}
  265,                                    ! Density {kg/m3}
  836.8,                                  ! Specific Heat {J/kg-K}
  0.9,                                    ! Thermal Absorptance
  0.7,                                    ! Solar Absorptance
  0.7;                                    ! Visible Absorptance

OS:ComponentCost:LineItem,
  {5107e145-b67b-48ad-9b67-ff267a1161ec}, ! Handle
  90.1-2001 Nonres B10 Ext Wall Steel-Framed, ! Name
  ,                                       ! Type
  Construction,                           ! Line Item Type
  90.1-2001 Nonres B10 Ext Wall Steel-Framed, ! Item Name
  ,                                       ! Object End Use Key
  ,                                       ! Quantity {dimensionless}
  87.08,                                  ! Material Cost {$}
  CostPerArea;                            ! Material Cost Units

OS:Construction,
  {6e25d18e-8917-459d-b822-b2ced35f62e8}, ! Handle
  90.1-2001 Nonres B10 Ext Wall Steel-Framed, ! Name
  ,                                       ! Surface Rendering Name
  {37fa6abb-da7b-4350-8364-d1c48a839cd5}, ! Layer 1
  {e3ec6669-b3d6-46cd-99ee-0525a7b523b9}, ! Layer 2
  {743ddcb0-50eb-4832-9da1-0e3fa90c0e39}; ! Layer 3

