
OS:Version,
  {76576c95-0617-4232-908f-cb4c938a4b6a}, ! Handle
  0.9.3;                                  ! Version Identifier

OS:Construction,
  {227c0721-09ee-4be1-8a56-4ff9e6b8400e}, ! Handle
  90.1-2001 Nonres B10 Ext Wall Steel-Framed, ! Name
  ,                                       ! Surface Rendering Name
  {c2666d05-33f8-4269-99fa-c99a1f7e0b46}, ! Layer 1
  {e0f544fb-d3f3-4022-8334-3688b1d05d97}, ! Layer 2
  {caecd926-f8b5-4db7-890c-a984a3069890}; ! Layer 3

OS:Material:NoMass,
  {c2666d05-33f8-4269-99fa-c99a1f7e0b46}, ! Handle
  MAT-SHEATH,                             ! Name
  Rough,                                  ! Roughness
  0.36256,                                ! Thermal Resistance {m2-K/W}
  0.9,                                    ! Thermal Absorptance
  0.7,                                    ! Solar Absorptance
  0.7;                                    ! Visible Absorptance

OS:Material,
  {e0f544fb-d3f3-4022-8334-3688b1d05d97}, ! Handle
  Wall Insulation [1],                    ! Name
  MediumRough,                            ! Roughness
  0.0373223,                              ! Thickness {m}
  0.045,                                  ! Conductivity {W/m-K}
  265,                                    ! Density {kg/m3}
  836.8,                                  ! Specific Heat {J/kg-K}
  0.9,                                    ! Thermal Absorptance
  0.7,                                    ! Solar Absorptance
  0.7;                                    ! Visible Absorptance

OS:Material,
  {caecd926-f8b5-4db7-890c-a984a3069890}, ! Handle
  1/2IN Gypsum,                           ! Name
  Smooth,                                 ! Roughness
  0.01271,                                ! Thickness {m}
  0.16,                                   ! Conductivity {W/m-K}
  784.9,                                  ! Density {kg/m3}
  830,                                    ! Specific Heat {J/kg-K}
  0.9,                                    ! Thermal Absorptance
  0.92,                                   ! Solar Absorptance
  0.92;                                   ! Visible Absorptance

OS:ComponentCost:LineItem,
  {00f638e0-8d09-4c4b-8913-8127b65f3e6f}, ! Handle
  90.1-2001 Nonres B10 Ext Wall Steel-Framed, ! Name
  ,                                       ! Type
  Construction,                           ! Line Item Type
  90.1-2001 Nonres B10 Ext Wall Steel-Framed, ! Item Name
  ,                                       ! Object End Use Key
  ,                                       ! Quantity {dimensionless}
  87.08,                                  ! Material Cost {$}
  CostPerArea;                            ! Material Cost Units

OS:ComponentData,
  {bcc8dc4f-1476-4119-8b0c-563df11bacd8}, ! Handle
  Component Data 1,                       ! Name
  {08ce66fd-f482-4835-be31-fc51aada8308}, ! UUID
  {dd21b9a1-2e29-4e18-b466-b363cde90703}, ! Version UUID
  1363981339,                             ! Creation Timestamp
  1363981339,                             ! Version Timestamp
  {227c0721-09ee-4be1-8a56-4ff9e6b8400e}, ! Name of Object 1
  {c2666d05-33f8-4269-99fa-c99a1f7e0b46}, ! Name of Object 2
  {e0f544fb-d3f3-4022-8334-3688b1d05d97}, ! Name of Object 3
  {caecd926-f8b5-4db7-890c-a984a3069890}, ! Name of Object 4
  {00f638e0-8d09-4c4b-8913-8127b65f3e6f}; ! Name of Object 5

