
OS:Version,
  {7e2d7416-9a99-41f0-84b4-d18a1bd4a436}, ! Handle
  0.9.3;                                  ! Version Identifier

OS:Material,
  {9676a588-586f-4d2c-b42c-c1d38e7eb294}, ! Handle
  Wall Insulation [6],                    ! Name
  MediumRough,                            ! Roughness
  0.0678449,                              ! Thickness {m}
  0.045,                                  ! Conductivity {W/m-K}
  265,                                    ! Density {kg/m3}
  836.8,                                  ! Specific Heat {J/kg-K}
  0.9,                                    ! Thermal Absorptance
  0.7,                                    ! Solar Absorptance
  0.7;                                    ! Visible Absorptance

OS:Material:NoMass,
  {f6efeb1b-d5b8-4ca0-9f4e-564452c5ac3f}, ! Handle
  MAT-SHEATH,                             ! Name
  Rough,                                  ! Roughness
  0.36256,                                ! Thermal Resistance {m2-K/W}
  0.9,                                    ! Thermal Absorptance
  0.7,                                    ! Solar Absorptance
  0.7;                                    ! Visible Absorptance

OS:Construction,
  {65c0e21c-c6af-4cfd-a7da-b05f7e06840c}, ! Handle
  90.1-1999 Nonres B16 Ext Wall Steel-Framed, ! Name
  ,                                       ! Surface Rendering Name
  {f6efeb1b-d5b8-4ca0-9f4e-564452c5ac3f}, ! Layer 1
  {9676a588-586f-4d2c-b42c-c1d38e7eb294}, ! Layer 2
  {77d4c0f2-59f7-4a22-ba6c-38d1ada5d56d}; ! Layer 3

OS:Material,
  {77d4c0f2-59f7-4a22-ba6c-38d1ada5d56d}, ! Handle
  1/2IN Gypsum,                           ! Name
  Smooth,                                 ! Roughness
  0.01271,                                ! Thickness {m}
  0.16,                                   ! Conductivity {W/m-K}
  784.9,                                  ! Density {kg/m3}
  830,                                    ! Specific Heat {J/kg-K}
  0.9,                                    ! Thermal Absorptance
  0.92,                                   ! Solar Absorptance
  0.92;                                   ! Visible Absorptance

OS:ComponentCost:LineItem,
  {e1d613f7-abc1-4c75-a53d-b54258376af6}, ! Handle
  90.1-1999 Nonres B16 Ext Wall Steel-Framed, ! Name
  ,                                       ! Type
  Construction,                           ! Line Item Type
  90.1-1999 Nonres B16 Ext Wall Steel-Framed, ! Item Name
  ,                                       ! Object End Use Key
  ,                                       ! Quantity {dimensionless}
  91.749,                                 ! Material Cost {$}
  CostPerArea;                            ! Material Cost Units

