
OS:Version,
  {46a46d90-ebab-45f2-adcd-ac2b40da0fbc}, ! Handle
  0.9.3;                                  ! Version Identifier

OS:Construction,
  {1c4d89d2-a61f-447e-bcaa-c84f863d1f9a}, ! Handle
  189.1-2009 Res 7A Ext Wall Steel-Framed, ! Name
  ,                                       ! Surface Rendering Name
  {c669fd02-9870-4a24-bc27-9844cc25d3ce}, ! Layer 1
  {6e1ea61f-ba35-45ec-abe9-ccdab50b098a}, ! Layer 2
  {d72cfb8e-b1ff-4690-b60c-01e9936c7e0b}; ! Layer 3

OS:Material:NoMass,
  {c669fd02-9870-4a24-bc27-9844cc25d3ce}, ! Handle
  MAT-SHEATH,                             ! Name
  Rough,                                  ! Roughness
  0.36256,                                ! Thermal Resistance {m2-K/W}
  0.9,                                    ! Thermal Absorptance
  0.7,                                    ! Solar Absorptance
  0.7;                                    ! Visible Absorptance

OS:Material,
  {6e1ea61f-ba35-45ec-abe9-ccdab50b098a}, ! Handle
  Wall Insulation [30],                   ! Name
  MediumRough,                            ! Roughness
  0.187482,                               ! Thickness {m}
  0.045,                                  ! Conductivity {W/m-K}
  265,                                    ! Density {kg/m3}
  836.8,                                  ! Specific Heat {J/kg-K}
  0.9,                                    ! Thermal Absorptance
  0.7,                                    ! Solar Absorptance
  0.7;                                    ! Visible Absorptance

OS:Material,
  {d72cfb8e-b1ff-4690-b60c-01e9936c7e0b}, ! Handle
  1/2IN Gypsum,                           ! Name
  Smooth,                                 ! Roughness
  0.01271,                                ! Thickness {m}
  0.16,                                   ! Conductivity {W/m-K}
  784.9,                                  ! Density {kg/m3}
  830,                                    ! Specific Heat {J/kg-K}
  0.9,                                    ! Thermal Absorptance
  0.92,                                   ! Solar Absorptance
  0.92;                                   ! Visible Absorptance

OS:ComponentCost:LineItem,
  {db1f7cce-3ac9-4b52-803e-01fa39e841ed}, ! Handle
  189.1-2009 Res 7A Ext Wall Steel-Framed, ! Name
  ,                                       ! Type
  Construction,                           ! Line Item Type
  189.1-2009 Res 7A Ext Wall Steel-Framed, ! Item Name
  ,                                       ! Object End Use Key
  ,                                       ! Quantity {dimensionless}
  103.891,                                ! Material Cost {$}
  CostPerArea;                            ! Material Cost Units

