
OS:Version,
  {b9f3d6be-f629-4435-bae7-d4c3d42ffd1c}, ! Handle
  0.9.3;                                  ! Version Identifier

OS:Construction,
  {fe9170eb-604d-4f78-8b7b-b07667499b26}, ! Handle
  90.1-1999 Res B10 Skylight without Curb, ! Name
  ,                                       ! Surface Rendering Name
  {7b222e1a-65a6-4140-9c7f-20c1178e5027}; ! Layer 1

OS:WindowMaterial:Glazing,
  {7b222e1a-65a6-4140-9c7f-20c1178e5027}, ! Handle
  Theoretical Glass [84],                 ! Name
  SpectralAverage,                        ! Optical Data Type
  ,                                       ! Window Glass Spectral Data Set Name
  0.003,                                  ! Thickness {m}
  0.37308,                                ! Solar Transmittance at Normal Incidence
  0.57692,                                ! Front Side Solar Reflectance at Normal Incidence
  0.57692,                                ! Back Side Solar Reflectance at Normal Incidence
  0.41104,                                ! Visible Transmittance at Normal Incidence
  0.53896,                                ! Front Side Visible Reflectance at Normal Incidence
  0.53896,                                ! Back Side Visible Reflectance at Normal Incidence
  0,                                      ! Infrared Transmittance at Normal Incidence
  0.9,                                    ! Front Side Infrared Hemispherical Emissivity
  0.9,                                    ! Back Side Infrared Hemispherical Emissivity
  0.0324872;                              ! Conductivity {W/m-K}

OS:ComponentCost:LineItem,
  {c558bc36-c480-4380-acaa-47eb91c6df26}, ! Handle
  90.1-1999 Res B10 Skylight without Curb, ! Name
  ,                                       ! Type
  Construction,                           ! Line Item Type
  90.1-1999 Res B10 Skylight without Curb, ! Item Name
  ,                                       ! Object End Use Key
  ,                                       ! Quantity {dimensionless}
  535.8,                                  ! Material Cost {$}
  CostPerArea;                            ! Material Cost Units

