
OS:Version,
  {647bcc4f-713e-4731-961c-2ce1d9d8f00d}, ! Handle
  0.9.3;                                  ! Version Identifier

OS:Construction,
  {a8aad513-0301-4f2a-aeee-2ef04e8fbd21}, ! Handle
  90.1-1999 Res B10 Skylight without Curb, ! Name
  ,                                       ! Surface Rendering Name
  {2a1a4865-cff1-469c-b119-eca67589b1f9}; ! Layer 1

OS:WindowMaterial:Glazing,
  {2a1a4865-cff1-469c-b119-eca67589b1f9}, ! Handle
  Theoretical Glass [84],                 ! Name
  SpectralAverage,                        ! Optical Data Type
  ,                                       ! Window Glass Spectral Data Set Name
  0.003,                                  ! Thickness {m}
  0.37308,                                ! Solar Transmittance at Normal Incidence
  0.57692,                                ! Front Side Solar Reflectance at Normal Incidence
  0.57692,                                ! Back Side Solar Reflectance at Normal Incidence
  0.41104,                                ! Visible Transmittance at Normal Incidence
  0.53896,                                ! Front Side Visible Reflectance at Normal Incidence
  0.53896,                                ! Back Side Visible Reflectance at Normal Incidence
  0,                                      ! Infrared Transmittance at Normal Incidence
  0.9,                                    ! Front Side Infrared Hemispherical Emissivity
  0.9,                                    ! Back Side Infrared Hemispherical Emissivity
  0.0324872;                              ! Conductivity {W/m-K}

OS:ComponentCost:LineItem,
  {99599484-f4ad-4ba1-ad0c-22d3b69909b3}, ! Handle
  90.1-1999 Res B10 Skylight without Curb, ! Name
  ,                                       ! Type
  Construction,                           ! Line Item Type
  90.1-1999 Res B10 Skylight without Curb, ! Item Name
  ,                                       ! Object End Use Key
  ,                                       ! Quantity {dimensionless}
  535.8,                                  ! Material Cost {$}
  CostPerArea;                            ! Material Cost Units

OS:ComponentData,
  {06e2d9dd-815b-4447-b11f-98a5213c110a}, ! Handle
  Component Data 1,                       ! Name
  {43e43c0a-43b6-47a3-ab5d-c588860b0567}, ! UUID
  {d8ec1f62-0983-44ef-af9e-3afe30963fac}, ! Version UUID
  1363981209,                             ! Creation Timestamp
  1363981209,                             ! Version Timestamp
  {a8aad513-0301-4f2a-aeee-2ef04e8fbd21}, ! Name of Object 1
  {2a1a4865-cff1-469c-b119-eca67589b1f9}, ! Name of Object 2
  {99599484-f4ad-4ba1-ad0c-22d3b69909b3}; ! Name of Object 3

