
OS:Version,
  {19373535-f76e-43f4-b46f-2dec3b995227}, ! Handle
  0.9.3;                                  ! Version Identifier

OS:Material,
  {d2079758-d703-47d7-85f0-d49845007b36}, ! Handle
  Roof Insulation [5],                    ! Name
  MediumRough,                            ! Roughness
  0.286906,                               ! Thickness {m}
  0.049,                                  ! Conductivity {W/m-K}
  265,                                    ! Density {kg/m3}
  836.8,                                  ! Specific Heat {J/kg-K}
  0.9,                                    ! Thermal Absorptance
  0.7,                                    ! Solar Absorptance
  0.7;                                    ! Visible Absorptance

OS:ComponentCost:LineItem,
  {199e465c-a60f-40e7-b9d8-35ca163d385d}, ! Handle
  90.1-2004 Res 3C Roof Attic and Other,  ! Name
  ,                                       ! Type
  Construction,                           ! Line Item Type
  90.1-2004 Res 3C Roof Attic and Other,  ! Item Name
  ,                                       ! Object End Use Key
  ,                                       ! Quantity {dimensionless}
  34.757,                                 ! Material Cost {$}
  CostPerArea;                            ! Material Cost Units

OS:Material,
  {83f4a84c-c3e4-414e-960f-98d290ef81ef}, ! Handle
  Wood Shingles,                          ! Name
  VeryRough,                              ! Roughness
  0.0178,                                 ! Thickness {m}
  0.115,                                  ! Conductivity {W/m-K}
  513,                                    ! Density {kg/m3}
  1255,                                   ! Specific Heat {J/kg-K}
  0.9,                                    ! Thermal Absorptance
  0.78,                                   ! Solar Absorptance
  0.78;                                   ! Visible Absorptance

OS:Construction,
  {6c663365-6858-45a3-b401-dea9cc85e955}, ! Handle
  90.1-2004 Res 3C Roof Attic and Other,  ! Name
  ,                                       ! Surface Rendering Name
  {83f4a84c-c3e4-414e-960f-98d290ef81ef}, ! Layer 1
  {1c74819b-2e22-4e62-8aac-a6ecea8d24ef}, ! Layer 2
  {d2079758-d703-47d7-85f0-d49845007b36}, ! Layer 3
  {ba6c9f42-b7f9-444b-91a6-59c28ea4c6ab}; ! Layer 4

OS:Material,
  {1c74819b-2e22-4e62-8aac-a6ecea8d24ef}, ! Handle
  1IN Wood Decking,                       ! Name
  MediumSmooth,                           ! Roughness
  0.0254,                                 ! Thickness {m}
  0.1211,                                 ! Conductivity {W/m-K}
  593,                                    ! Density {kg/m3}
  2510,                                   ! Specific Heat {J/kg-K}
  0.9,                                    ! Thermal Absorptance
  0.78,                                   ! Solar Absorptance
  0.78;                                   ! Visible Absorptance

OS:Material,
  {ba6c9f42-b7f9-444b-91a6-59c28ea4c6ab}, ! Handle
  1/2IN Gypsum,                           ! Name
  Smooth,                                 ! Roughness
  0.01271,                                ! Thickness {m}
  0.16,                                   ! Conductivity {W/m-K}
  784.9,                                  ! Density {kg/m3}
  830,                                    ! Specific Heat {J/kg-K}
  0.9,                                    ! Thermal Absorptance
  0.92,                                   ! Solar Absorptance
  0.92;                                   ! Visible Absorptance

