
OS:Version,
  {72d6db89-bc8d-423a-bba6-200666a33526}, ! Handle
  0.9.3;                                  ! Version Identifier

OS:Material,
  {11e993d2-239f-4909-8a79-f3c8cc5e9a97}, ! Handle
  Roof Membrane,                          ! Name
  VeryRough,                              ! Roughness
  0.0095,                                 ! Thickness {m}
  0.16,                                   ! Conductivity {W/m-K}
  1121.29,                                ! Density {kg/m3}
  1460,                                   ! Specific Heat {J/kg-K}
  0.9,                                    ! Thermal Absorptance
  0.7,                                    ! Solar Absorptance
  0.7;                                    ! Visible Absorptance

OS:Material,
  {0c2e8f75-87c1-4652-9898-dc297c0d18fc}, ! Handle
  Roof Insulation [3],                    ! Name
  MediumRough,                            ! Roughness
  0.0806842,                              ! Thickness {m}
  0.049,                                  ! Conductivity {W/m-K}
  265,                                    ! Density {kg/m3}
  836.8,                                  ! Specific Heat {J/kg-K}
  0.9,                                    ! Thermal Absorptance
  0.7,                                    ! Solar Absorptance
  0.7;                                    ! Visible Absorptance

OS:Material,
  {66924662-e35b-4ae1-bf30-620d53e5ce4c}, ! Handle
  Metal Decking,                          ! Name
  MediumSmooth,                           ! Roughness
  0.001524,                               ! Thickness {m}
  45.006,                                 ! Conductivity {W/m-K}
  7680,                                   ! Density {kg/m3}
  418.4,                                  ! Specific Heat {J/kg-K}
  0.9,                                    ! Thermal Absorptance
  0.7,                                    ! Solar Absorptance
  0.3;                                    ! Visible Absorptance

OS:ComponentCost:LineItem,
  {0dea76d7-c777-4043-8e06-266494a0c3d6}, ! Handle
  90.1-1999 Nonres B7 Roof IEAD,          ! Name
  ,                                       ! Type
  Construction,                           ! Line Item Type
  90.1-1999 Nonres B7 Roof IEAD,          ! Item Name
  ,                                       ! Object End Use Key
  ,                                       ! Quantity {dimensionless}
  45.318,                                 ! Material Cost {$}
  CostPerArea;                            ! Material Cost Units

OS:Construction,
  {589df418-72de-4347-af79-2ec6a0236034}, ! Handle
  90.1-1999 Nonres B7 Roof IEAD,          ! Name
  ,                                       ! Surface Rendering Name
  {11e993d2-239f-4909-8a79-f3c8cc5e9a97}, ! Layer 1
  {0c2e8f75-87c1-4652-9898-dc297c0d18fc}, ! Layer 2
  {66924662-e35b-4ae1-bf30-620d53e5ce4c}; ! Layer 3

