
OS:Version,
  {1dad7282-d4ca-434b-833c-b93da25bc103}, ! Handle
  0.9.3;                                  ! Version Identifier

OS:Material,
  {6943bb18-1de7-47d7-b83e-05f2ef034c7a}, ! Handle
  Metal Siding,                           ! Name
  Smooth,                                 ! Roughness
  0.0015,                                 ! Thickness {m}
  44.96,                                  ! Conductivity {W/m-K}
  7688.86,                                ! Density {kg/m3}
  410,                                    ! Specific Heat {J/kg-K}
  0.9,                                    ! Thermal Absorptance
  0.2,                                    ! Solar Absorptance
  0.2;                                    ! Visible Absorptance

OS:Construction,
  {f9515ff9-d6ea-4b79-b90d-ef5d6da76de8}, ! Handle
  90.1-2001 Nonres B2 Ext Wall Metal Building, ! Name
  ,                                       ! Surface Rendering Name
  {6943bb18-1de7-47d7-b83e-05f2ef034c7a}, ! Layer 1
  {204b68fa-a8b2-4b8e-9509-603768a9aa5d}, ! Layer 2
  {8c2b8283-484a-4442-8831-93956c1cce52}; ! Layer 3

OS:Material,
  {204b68fa-a8b2-4b8e-9509-603768a9aa5d}, ! Handle
  Wall Insulation,                        ! Name
  MediumRough,                            ! Roughness
  0.0598725,                              ! Thickness {m}
  0.045,                                  ! Conductivity {W/m-K}
  265,                                    ! Density {kg/m3}
  836.8,                                  ! Specific Heat {J/kg-K}
  0.9,                                    ! Thermal Absorptance
  0.7,                                    ! Solar Absorptance
  0.7;                                    ! Visible Absorptance

OS:Material,
  {8c2b8283-484a-4442-8831-93956c1cce52}, ! Handle
  1/2IN Gypsum,                           ! Name
  Smooth,                                 ! Roughness
  0.01271,                                ! Thickness {m}
  0.16,                                   ! Conductivity {W/m-K}
  784.9,                                  ! Density {kg/m3}
  830,                                    ! Specific Heat {J/kg-K}
  0.9,                                    ! Thermal Absorptance
  0.92,                                   ! Solar Absorptance
  0.92;                                   ! Visible Absorptance

OS:ComponentCost:LineItem,
  {38a6fa2c-91a0-4412-91c8-5e9509a0398b}, ! Handle
  90.1-2001 Nonres B2 Ext Wall Metal Building, ! Name
  ,                                       ! Type
  Construction,                           ! Line Item Type
  90.1-2001 Nonres B2 Ext Wall Metal Building, ! Item Name
  ,                                       ! Object End Use Key
  ,                                       ! Quantity {dimensionless}
  98.78,                                  ! Material Cost {$}
  CostPerArea;                            ! Material Cost Units

