
OS:Version,
  {fc0207e5-1c11-4eed-ab47-960c843b7b9b}, ! Handle
  0.9.3;                                  ! Version Identifier

OS:Construction,
  {9f557202-183e-4cb9-ada3-0597fabeadf7}, ! Handle
  90.1-2001 Nonres B2 Ext Wall Metal Building, ! Name
  ,                                       ! Surface Rendering Name
  {a008bb38-6cc5-407d-ade3-9916da20b93b}, ! Layer 1
  {1f19d748-b6ef-4ca6-a297-7a84abf8eaa0}, ! Layer 2
  {993bd15d-7137-43d4-89b1-08ee5f8b4389}; ! Layer 3

OS:Material,
  {a008bb38-6cc5-407d-ade3-9916da20b93b}, ! Handle
  Metal Siding,                           ! Name
  Smooth,                                 ! Roughness
  0.0015,                                 ! Thickness {m}
  44.96,                                  ! Conductivity {W/m-K}
  7688.86,                                ! Density {kg/m3}
  410,                                    ! Specific Heat {J/kg-K}
  0.9,                                    ! Thermal Absorptance
  0.2,                                    ! Solar Absorptance
  0.2;                                    ! Visible Absorptance

OS:Material,
  {1f19d748-b6ef-4ca6-a297-7a84abf8eaa0}, ! Handle
  Wall Insulation,                        ! Name
  MediumRough,                            ! Roughness
  0.0598725,                              ! Thickness {m}
  0.045,                                  ! Conductivity {W/m-K}
  265,                                    ! Density {kg/m3}
  836.8,                                  ! Specific Heat {J/kg-K}
  0.9,                                    ! Thermal Absorptance
  0.7,                                    ! Solar Absorptance
  0.7;                                    ! Visible Absorptance

OS:Material,
  {993bd15d-7137-43d4-89b1-08ee5f8b4389}, ! Handle
  1/2IN Gypsum,                           ! Name
  Smooth,                                 ! Roughness
  0.01271,                                ! Thickness {m}
  0.16,                                   ! Conductivity {W/m-K}
  784.9,                                  ! Density {kg/m3}
  830,                                    ! Specific Heat {J/kg-K}
  0.9,                                    ! Thermal Absorptance
  0.92,                                   ! Solar Absorptance
  0.92;                                   ! Visible Absorptance

OS:ComponentCost:LineItem,
  {2f417fb3-f06f-445e-b800-26f91ad47bd1}, ! Handle
  90.1-2001 Nonres B2 Ext Wall Metal Building, ! Name
  ,                                       ! Type
  Construction,                           ! Line Item Type
  90.1-2001 Nonres B2 Ext Wall Metal Building, ! Item Name
  ,                                       ! Object End Use Key
  ,                                       ! Quantity {dimensionless}
  98.78,                                  ! Material Cost {$}
  CostPerArea;                            ! Material Cost Units

OS:ComponentData,
  {51f89cd9-ecfd-4e4a-9468-c456acb9bf56}, ! Handle
  Component Data 1,                       ! Name
  {a2229d9e-c23f-4a06-aab8-74219a6c89ef}, ! UUID
  {f98b2ed5-88b9-42eb-839e-d2bb7b9591c5}, ! Version UUID
  1363981295,                             ! Creation Timestamp
  1363981295,                             ! Version Timestamp
  {9f557202-183e-4cb9-ada3-0597fabeadf7}, ! Name of Object 1
  {a008bb38-6cc5-407d-ade3-9916da20b93b}, ! Name of Object 2
  {1f19d748-b6ef-4ca6-a297-7a84abf8eaa0}, ! Name of Object 3
  {993bd15d-7137-43d4-89b1-08ee5f8b4389}, ! Name of Object 4
  {2f417fb3-f06f-445e-b800-26f91ad47bd1}; ! Name of Object 5

