
OS:Version,
  {ae46c5df-3bc5-4594-8c5f-fcdebe8cdb2f}, ! Handle
  0.9.3;                                  ! Version Identifier

OS:Material,
  {891554ce-adf4-4034-a2cb-5eef419dcb6e}, ! Handle
  Metal Roofing,                          ! Name
  MediumSmooth,                           ! Roughness
  0.001524,                               ! Thickness {m}
  45.006,                                 ! Conductivity {W/m-K}
  7680,                                   ! Density {kg/m3}
  418.4,                                  ! Specific Heat {J/kg-K}
  0.9,                                    ! Thermal Absorptance
  0.7,                                    ! Solar Absorptance
  0.3;                                    ! Visible Absorptance

OS:ComponentCost:LineItem,
  {329776c1-3a68-4612-841d-31c744f08550}, ! Handle
  90.1-2001 Nonres B26 Roof Metal Building, ! Name
  ,                                       ! Type
  Construction,                           ! Line Item Type
  90.1-2001 Nonres B26 Roof Metal Building, ! Item Name
  ,                                       ! Object End Use Key
  ,                                       ! Quantity {dimensionless}
  42.974,                                 ! Material Cost {$}
  CostPerArea;                            ! Material Cost Units

OS:Material,
  {e5fac92b-3f57-41ac-8ac7-11d4cc37d512}, ! Handle
  Roof Insulation [10],                   ! Name
  MediumRough,                            ! Roughness
  0.174366,                               ! Thickness {m}
  0.049,                                  ! Conductivity {W/m-K}
  265,                                    ! Density {kg/m3}
  836.8,                                  ! Specific Heat {J/kg-K}
  0.9,                                    ! Thermal Absorptance
  0.7,                                    ! Solar Absorptance
  0.7;                                    ! Visible Absorptance

OS:Construction,
  {07baf62f-3268-462e-9693-caa7d5edd13c}, ! Handle
  90.1-2001 Nonres B26 Roof Metal Building, ! Name
  ,                                       ! Surface Rendering Name
  {891554ce-adf4-4034-a2cb-5eef419dcb6e}, ! Layer 1
  {e5fac92b-3f57-41ac-8ac7-11d4cc37d512}; ! Layer 2

