
OS:Version,
  {53cd24fd-07ff-48c1-b82f-7ea17db206da}, ! Handle
  0.9.3;                                  ! Version Identifier

OS:Construction,
  {8a3233f6-03d1-4eb5-8995-10c8cb97bcd5}, ! Handle
  90.1-2001 Res B1 Ext Slab Unheated - 8in Slab without Carpet, ! Name
  ,                                       ! Surface Rendering Name
  {5b2c453e-2433-4efb-a956-3d8c74f305ce}; ! Layer 1

OS:Material,
  {5b2c453e-2433-4efb-a956-3d8c74f305ce}, ! Handle
  MAT-CC05 8 HW CONCRETE,                 ! Name
  Rough,                                  ! Roughness
  0.20321,                                ! Thickness {m}
  1.311,                                  ! Conductivity {W/m-K}
  2240,                                   ! Density {kg/m3}
  836.8,                                  ! Specific Heat {J/kg-K}
  0.9,                                    ! Thermal Absorptance
  0.7,                                    ! Solar Absorptance
  0.7;                                    ! Visible Absorptance

OS:ComponentCost:LineItem,
  {897eb397-f908-4634-848d-16569ac198c7}, ! Handle
  90.1-2001 Res B1 Ext Slab Unheated - 8in Slab without Carpet, ! Name
  ,                                       ! Type
  Construction,                           ! Line Item Type
  90.1-2001 Res B1 Ext Slab Unheated - 8in Slab without Carpet, ! Item Name
  ,                                       ! Object End Use Key
  ,                                       ! Quantity {dimensionless}
  45.52,                                  ! Material Cost {$}
  CostPerArea;                            ! Material Cost Units

