
OS:Version,
  {cd2786b9-717b-4b12-90f8-26e71b37eeb2}, ! Handle
  0.9.3;                                  ! Version Identifier

OS:Construction,
  {36d09974-8eac-45c9-b23e-544bce0dff06}, ! Handle
  Title 24-2008 Nonres 5 Ext Slab Unheated - 4in Slab without Carpet, ! Name
  ,                                       ! Surface Rendering Name
  {bb9fd922-819d-4d33-bb1f-5cfda3a0d365}; ! Layer 1

OS:Material,
  {bb9fd922-819d-4d33-bb1f-5cfda3a0d365}, ! Handle
  MAT-CC05 4 HW CONCRETE,                 ! Name
  Rough,                                  ! Roughness
  0.1016,                                 ! Thickness {m}
  1.311,                                  ! Conductivity {W/m-K}
  2240,                                   ! Density {kg/m3}
  836.8,                                  ! Specific Heat {J/kg-K}
  0.9,                                    ! Thermal Absorptance
  0.7,                                    ! Solar Absorptance
  0.7;                                    ! Visible Absorptance

OS:ComponentCost:LineItem,
  {f5452aa0-d47a-4a83-a96a-b14a30e0130b}, ! Handle
  Title 24-2008 Nonres 5 Ext Slab Unheated - 4in Slab without Carpet, ! Name
  ,                                       ! Type
  Construction,                           ! Line Item Type
  Title 24-2008 Nonres 5 Ext Slab Unheated - 4in Slab without Carpet, ! Item Name
  ,                                       ! Object End Use Key
  ,                                       ! Quantity {dimensionless}
  45.52,                                  ! Material Cost {$}
  CostPerArea;                            ! Material Cost Units

