
OS:Version,
  {5c4c06af-d20a-4121-a2a2-e5ebea62f59a}, ! Handle
  0.9.3;                                  ! Version Identifier

OS:Material,
  {5ac5202d-50db-42fc-869f-571ba3210bc7}, ! Handle
  Metal Roofing,                          ! Name
  MediumSmooth,                           ! Roughness
  0.001524,                               ! Thickness {m}
  45.006,                                 ! Conductivity {W/m-K}
  7680,                                   ! Density {kg/m3}
  418.4,                                  ! Specific Heat {J/kg-K}
  0.9,                                    ! Thermal Absorptance
  0.7,                                    ! Solar Absorptance
  0.3;                                    ! Visible Absorptance

OS:ComponentCost:LineItem,
  {3c6b5da8-6b74-4f78-b4c4-76fa31551ee3}, ! Handle
  AEDG-SmOffice 8A Roof Metal Building,   ! Name
  ,                                       ! Type
  Construction,                           ! Line Item Type
  AEDG-SmOffice 8A Roof Metal Building,   ! Item Name
  ,                                       ! Object End Use Key
  ,                                       ! Quantity {dimensionless}
  43.37,                                  ! Material Cost {$}
  CostPerArea;                            ! Material Cost Units

OS:Material,
  {1c1067b1-8486-4ec6-87ee-cecef866f2fc}, ! Handle
  Roof Insulation [30],                   ! Name
  MediumRough,                            ! Roughness
  0.178372,                               ! Thickness {m}
  0.049,                                  ! Conductivity {W/m-K}
  265,                                    ! Density {kg/m3}
  836.8,                                  ! Specific Heat {J/kg-K}
  0.9,                                    ! Thermal Absorptance
  0.7,                                    ! Solar Absorptance
  0.7;                                    ! Visible Absorptance

OS:Construction,
  {931e94bd-abd7-40af-b73c-422b81399a1b}, ! Handle
  AEDG-SmOffice 8A Roof Metal Building,   ! Name
  ,                                       ! Surface Rendering Name
  {5ac5202d-50db-42fc-869f-571ba3210bc7}, ! Layer 1
  {1c1067b1-8486-4ec6-87ee-cecef866f2fc}; ! Layer 2

