
OS:Version,
  {aea38f3f-8cf2-4bb2-bfde-664d56f7eb5b}, ! Handle
  0.9.3;                                  ! Version Identifier

OS:ComponentCost:LineItem,
  {ff9d1b67-c319-4711-9d91-122d1683e9c3}, ! Handle
  90.1-2004 Res 4B Attic Floor,           ! Name
  ,                                       ! Type
  Construction,                           ! Line Item Type
  90.1-2004 Res 4B Attic Floor,           ! Item Name
  ,                                       ! Object End Use Key
  ,                                       ! Quantity {dimensionless}
  35.009,                                 ! Material Cost {$}
  CostPerArea;                            ! Material Cost Units

OS:Material,
  {0fa7d9d3-b203-4435-9f69-8becde074930}, ! Handle
  1/2IN Gypsum Top,                       ! Name
  Smooth,                                 ! Roughness
  0.01271,                                ! Thickness {m}
  0.16,                                   ! Conductivity {W/m-K}
  784.9,                                  ! Density {kg/m3}
  830,                                    ! Specific Heat {J/kg-K}
  0.9,                                    ! Thermal Absorptance
  0.92,                                   ! Solar Absorptance
  0.92;                                   ! Visible Absorptance

OS:Material,
  {2e6f001f-90d5-4aed-b26c-5e057defcb25}, ! Handle
  AtticFloor Insulation [1],              ! Name
  MediumRough,                            ! Roughness
  0.303719,                               ! Thickness {m}
  0.049,                                  ! Conductivity {W/m-K}
  265,                                    ! Density {kg/m3}
  836.8,                                  ! Specific Heat {J/kg-K}
  0.9,                                    ! Thermal Absorptance
  0.7,                                    ! Solar Absorptance
  0.7;                                    ! Visible Absorptance

OS:Material,
  {49d25971-5797-4b32-8339-f527313c4b28}, ! Handle
  1/2IN Gypsum Bottom,                    ! Name
  Smooth,                                 ! Roughness
  0.01271,                                ! Thickness {m}
  0.16,                                   ! Conductivity {W/m-K}
  784.9,                                  ! Density {kg/m3}
  830,                                    ! Specific Heat {J/kg-K}
  0.9,                                    ! Thermal Absorptance
  0.92,                                   ! Solar Absorptance
  0.92;                                   ! Visible Absorptance

OS:Construction,
  {cbfca668-8914-4999-a895-96b3b85e1803}, ! Handle
  90.1-2004 Res 4B Attic Floor,           ! Name
  ,                                       ! Surface Rendering Name
  {0fa7d9d3-b203-4435-9f69-8becde074930}, ! Layer 1
  {2e6f001f-90d5-4aed-b26c-5e057defcb25}, ! Layer 2
  {49d25971-5797-4b32-8339-f527313c4b28}; ! Layer 3

