
OS:Version,
  {edcaeaaa-05e1-4f44-8f70-e690dade5ecd}, !- Handle
  1.1.0;                                  !- Version Identifier

OS:Construction,
  {aa95b7e7-596d-4f3f-abe6-85af457ad126}, !- Handle
  Dbl Grey 3mm/6mm Air,                   !- Name
  ,                                       !- Surface Rendering Name
  {c80a9a0f-eaf2-4140-a008-112d176d0e57}, !- Layer 1
  {918f9098-ced6-45bd-b491-0075957b217f}, !- Layer 2
  {c640b891-4b84-4da9-a3d6-5153ac3fc59a}; !- Layer 3

OS:WindowMaterial:Glazing,
  {c80a9a0f-eaf2-4140-a008-112d176d0e57}, !- Handle
  GREY 3MM,                               !- Name
  SpectralAverage,                        !- Optical Data Type
  ,                                       !- Window Glass Spectral Data Set Name
  0.003,                                  !- Thickness {m}
  0.626,                                  !- Solar Transmittance at Normal Incidence
  0.061,                                  !- Front Side Solar Reflectance at Normal Incidence
  0.061,                                  !- Back Side Solar Reflectance at Normal Incidence
  0.611,                                  !- Visible Transmittance at Normal Incidence
  0.061,                                  !- Front Side Visible Reflectance at Normal Incidence
  0.061,                                  !- Back Side Visible Reflectance at Normal Incidence
  0,                                      !- Infrared Transmittance at Normal Incidence
  0.84,                                   !- Front Side Infrared Hemispherical Emissivity
  0.84,                                   !- Back Side Infrared Hemispherical Emissivity
  0.9;                                    !- Conductivity {W/m-K}

OS:WindowMaterial:Gas,
  {918f9098-ced6-45bd-b491-0075957b217f}, !- Handle
  AIR 6MM,                                !- Name
  Air,                                    !- Gas Type
  0.0063;                                 !- Thickness {m}

OS:WindowMaterial:Glazing,
  {c640b891-4b84-4da9-a3d6-5153ac3fc59a}, !- Handle
  CLEAR 3MM,                              !- Name
  SpectralAverage,                        !- Optical Data Type
  ,                                       !- Window Glass Spectral Data Set Name
  0.003,                                  !- Thickness {m}
  0.837,                                  !- Solar Transmittance at Normal Incidence
  0.075,                                  !- Front Side Solar Reflectance at Normal Incidence
  0.075,                                  !- Back Side Solar Reflectance at Normal Incidence
  0.898,                                  !- Visible Transmittance at Normal Incidence
  0.081,                                  !- Front Side Visible Reflectance at Normal Incidence
  0.081,                                  !- Back Side Visible Reflectance at Normal Incidence
  0,                                      !- Infrared Transmittance at Normal Incidence
  0.84,                                   !- Front Side Infrared Hemispherical Emissivity
  0.84,                                   !- Back Side Infrared Hemispherical Emissivity
  0.9;                                    !- Conductivity {W/m-K}

