
OS:Version,
  {7365d763-abce-4cbe-b52e-bc110e3e1d12}, !- Handle
  1.1.0;                                  !- Version Identifier

OS:Construction,
  {b6d47570-9336-4100-9a6f-55c4fe8d82f9}, !- Handle
  Dbl Grey 3mm/6mm Air,                   !- Name
  ,                                       !- Surface Rendering Name
  {7219900e-fc54-4bfe-81c6-5963281530d3}, !- Layer 1
  {c4f9efc8-e8a5-43dd-b6f3-847c8d469c72}, !- Layer 2
  {834aebf7-bcd8-4c87-b619-aa0717e64212}; !- Layer 3

OS:WindowMaterial:Glazing,
  {7219900e-fc54-4bfe-81c6-5963281530d3}, !- Handle
  GREY 3MM,                               !- Name
  SpectralAverage,                        !- Optical Data Type
  ,                                       !- Window Glass Spectral Data Set Name
  0.003,                                  !- Thickness {m}
  0.626,                                  !- Solar Transmittance at Normal Incidence
  0.061,                                  !- Front Side Solar Reflectance at Normal Incidence
  0.061,                                  !- Back Side Solar Reflectance at Normal Incidence
  0.611,                                  !- Visible Transmittance at Normal Incidence
  0.061,                                  !- Front Side Visible Reflectance at Normal Incidence
  0.061,                                  !- Back Side Visible Reflectance at Normal Incidence
  0,                                      !- Infrared Transmittance at Normal Incidence
  0.84,                                   !- Front Side Infrared Hemispherical Emissivity
  0.84,                                   !- Back Side Infrared Hemispherical Emissivity
  0.9;                                    !- Conductivity {W/m-K}

OS:WindowMaterial:Gas,
  {c4f9efc8-e8a5-43dd-b6f3-847c8d469c72}, !- Handle
  AIR 6MM,                                !- Name
  Air,                                    !- Gas Type
  0.0063;                                 !- Thickness {m}

OS:WindowMaterial:Glazing,
  {834aebf7-bcd8-4c87-b619-aa0717e64212}, !- Handle
  CLEAR 3MM,                              !- Name
  SpectralAverage,                        !- Optical Data Type
  ,                                       !- Window Glass Spectral Data Set Name
  0.003,                                  !- Thickness {m}
  0.837,                                  !- Solar Transmittance at Normal Incidence
  0.075,                                  !- Front Side Solar Reflectance at Normal Incidence
  0.075,                                  !- Back Side Solar Reflectance at Normal Incidence
  0.898,                                  !- Visible Transmittance at Normal Incidence
  0.081,                                  !- Front Side Visible Reflectance at Normal Incidence
  0.081,                                  !- Back Side Visible Reflectance at Normal Incidence
  0,                                      !- Infrared Transmittance at Normal Incidence
  0.84,                                   !- Front Side Infrared Hemispherical Emissivity
  0.84,                                   !- Back Side Infrared Hemispherical Emissivity
  0.9;                                    !- Conductivity {W/m-K}

OS:ComponentData,
  {ad4e3671-15b9-4a22-b407-a5293e240c2c}, !- Handle
  Component Data 1,                       !- Name
  {077b8359-ca1e-4857-9ce4-49f6e446e66a}, !- UUID
  {8d213844-bc6e-4e4d-982a-c44c544b6e79}, !- Version UUID
  1384380197,                             !- Creation Timestamp
  1384380197,                             !- Version Timestamp
  {b6d47570-9336-4100-9a6f-55c4fe8d82f9}, !- Name of Object 1
  {7219900e-fc54-4bfe-81c6-5963281530d3}, !- Name of Object 2
  {c4f9efc8-e8a5-43dd-b6f3-847c8d469c72}, !- Name of Object 3
  {834aebf7-bcd8-4c87-b619-aa0717e64212}; !- Name of Object 4

