
OS:Version,
  {5b7f5c81-d3bd-40c8-b873-fb0f9b3284f0}, ! Handle
  0.9.3;                                  ! Version Identifier

OS:Construction,
  {7d85815e-29f6-4590-9c65-c99d28a4efb5}, ! Handle
  90.1 Windows Window Fixed 3681 Vnl-Clr-Ins-V88-Ins-Clr, ! Name
  ,                                       ! Surface Rendering Name
  {bc1b8383-1ae4-4203-9e6b-9f2c3b9a1acb}; ! Layer 1

OS:WindowMaterial:Glazing,
  {bc1b8383-1ae4-4203-9e6b-9f2c3b9a1acb}, ! Handle
  Theoretical Glass [310],                ! Name
  SpectralAverage,                        ! Optical Data Type
  ,                                       ! Window Glass Spectral Data Set Name
  0.003,                                  ! Thickness {m}
  0.476609,                               ! Solar Transmittance at Normal Incidence
  0.473391,                               ! Front Side Solar Reflectance at Normal Incidence
  0.473391,                               ! Back Side Solar Reflectance at Normal Incidence
  0.609218,                               ! Visible Transmittance at Normal Incidence
  0.340782,                               ! Front Side Visible Reflectance at Normal Incidence
  0.340782,                               ! Back Side Visible Reflectance at Normal Incidence
  0,                                      ! Infrared Transmittance at Normal Incidence
  0.9,                                    ! Front Side Infrared Hemispherical Emissivity
  0.9,                                    ! Back Side Infrared Hemispherical Emissivity
  0.0058677;                              ! Conductivity {W/m-K}

OS:ComponentCost:LineItem,
  {f2eac63e-8ed8-401c-87d5-d398a4ba9e1f}, ! Handle
  90.1 Windows Window Fixed 3681 Vnl-Clr-Ins-V88-Ins-Clr, ! Name
  ,                                       ! Type
  Construction,                           ! Line Item Type
  90.1 Windows Window Fixed 3681 Vnl-Clr-Ins-V88-Ins-Clr, ! Item Name
  ,                                       ! Object End Use Key
  ,                                       ! Quantity {dimensionless}
  0,                                      ! Material Cost {$}
  CostPerArea;                            ! Material Cost Units

