
OS:Version,
  {0df033b7-552e-4c8e-a462-505341bf0ff4}, ! Handle
  0.9.3;                                  ! Version Identifier

OS:Construction,
  {d4ae34d3-db57-4498-a14a-ebb183f6a08a}, ! Handle
  90.1-1999 Nonres B17 Ext Wall Wood-Framed and Other, ! Name
  ,                                       ! Surface Rendering Name
  {1dd08945-c202-4ba2-9966-afc2cd7a8311}, ! Layer 1
  {71df927f-fe2f-4c96-b8ec-2347089425ee}, ! Layer 2
  {75450e93-ea4f-4fd8-9e4e-7da948deb169}; ! Layer 3

OS:Material,
  {1dd08945-c202-4ba2-9966-afc2cd7a8311}, ! Handle
  Wood Siding,                            ! Name
  MediumSmooth,                           ! Roughness
  0.01,                                   ! Thickness {m}
  0.11,                                   ! Conductivity {W/m-K}
  544.62,                                 ! Density {kg/m3}
  1210,                                   ! Specific Heat {J/kg-K}
  0.9,                                    ! Thermal Absorptance
  0.78,                                   ! Solar Absorptance
  0.78;                                   ! Visible Absorptance

OS:Material,
  {71df927f-fe2f-4c96-b8ec-2347089425ee}, ! Handle
  Wall Insulation [2],                    ! Name
  MediumRough,                            ! Roughness
  0.0746874,                              ! Thickness {m}
  0.045,                                  ! Conductivity {W/m-K}
  265,                                    ! Density {kg/m3}
  836.8,                                  ! Specific Heat {J/kg-K}
  0.9,                                    ! Thermal Absorptance
  0.7,                                    ! Solar Absorptance
  0.7;                                    ! Visible Absorptance

OS:Material,
  {75450e93-ea4f-4fd8-9e4e-7da948deb169}, ! Handle
  1/2IN Gypsum,                           ! Name
  Smooth,                                 ! Roughness
  0.01271,                                ! Thickness {m}
  0.16,                                   ! Conductivity {W/m-K}
  784.9,                                  ! Density {kg/m3}
  830,                                    ! Specific Heat {J/kg-K}
  0.9,                                    ! Thermal Absorptance
  0.92,                                   ! Solar Absorptance
  0.92;                                   ! Visible Absorptance

OS:ComponentCost:LineItem,
  {af361e3d-916e-4113-b2fc-4b5ec3ae0428}, ! Handle
  90.1-1999 Nonres B17 Ext Wall Wood-Framed and Other, ! Name
  ,                                       ! Type
  Construction,                           ! Line Item Type
  90.1-1999 Nonres B17 Ext Wall Wood-Framed and Other, ! Item Name
  ,                                       ! Object End Use Key
  ,                                       ! Quantity {dimensionless}
  73.056,                                 ! Material Cost {$}
  CostPerArea;                            ! Material Cost Units

