
OS:Version,
  {00df097c-8622-4b38-a658-b653985d89b1}, ! Handle
  0.9.3;                                  ! Version Identifier

OS:Construction,
  {00ea7f5f-4933-40da-a50c-43cf7b4a3988}, ! Handle
  90.1-1999 Res B11 Window Fixed,         ! Name
  ,                                       ! Surface Rendering Name
  {754c92cf-89fe-4b87-a3ce-54416933cc75}; ! Layer 1

OS:WindowMaterial:Glazing,
  {754c92cf-89fe-4b87-a3ce-54416933cc75}, ! Handle
  Theoretical Glass [86],                 ! Name
  SpectralAverage,                        ! Optical Data Type
  ,                                       ! Window Glass Spectral Data Set Name
  0.003,                                  ! Thickness {m}
  0.341155,                               ! Solar Transmittance at Normal Incidence
  0.608845,                               ! Front Side Solar Reflectance at Normal Incidence
  0.608845,                               ! Back Side Solar Reflectance at Normal Incidence
  0.360158,                               ! Visible Transmittance at Normal Incidence
  0.589842,                               ! Front Side Visible Reflectance at Normal Incidence
  0.589842,                               ! Back Side Visible Reflectance at Normal Incidence
  0,                                      ! Infrared Transmittance at Normal Incidence
  0.9,                                    ! Front Side Infrared Hemispherical Emissivity
  0.9,                                    ! Back Side Infrared Hemispherical Emissivity
  0.013781;                               ! Conductivity {W/m-K}

OS:ComponentCost:LineItem,
  {e863ded7-51b3-48bc-86ad-e30290a4f173}, ! Handle
  90.1-1999 Res B11 Window Fixed,         ! Name
  ,                                       ! Type
  Construction,                           ! Line Item Type
  90.1-1999 Res B11 Window Fixed,         ! Item Name
  ,                                       ! Object End Use Key
  ,                                       ! Quantity {dimensionless}
  554.2,                                  ! Material Cost {$}
  CostPerArea;                            ! Material Cost Units

