
OS:Version,
  {1def9282-e4b1-46af-9571-179e271229dc}, ! Handle
  0.9.3;                                  ! Version Identifier

OS:Material,
  {751b3e30-a159-4f10-a7d1-bd7f5894f304}, ! Handle
  Wood Shingles,                          ! Name
  VeryRough,                              ! Roughness
  0.0178,                                 ! Thickness {m}
  0.115,                                  ! Conductivity {W/m-K}
  513,                                    ! Density {kg/m3}
  1255,                                   ! Specific Heat {J/kg-K}
  0.9,                                    ! Thermal Absorptance
  0.78,                                   ! Solar Absorptance
  0.78;                                   ! Visible Absorptance

OS:Construction,
  {b8da6877-cf14-4105-a2e6-0ed8075c7bfc}, ! Handle
  90.1-2001 Res B17 Roof Attic and Other, ! Name
  ,                                       ! Surface Rendering Name
  {751b3e30-a159-4f10-a7d1-bd7f5894f304}, ! Layer 1
  {6ca810a9-3b1e-44f1-a909-6c85923a5dd9}, ! Layer 2
  {16e41c82-5a37-477c-9a4c-44ee017bda29}, ! Layer 3
  {25c2c060-9c99-43ae-9a7a-5de5fad076f8}; ! Layer 4

OS:Material,
  {6ca810a9-3b1e-44f1-a909-6c85923a5dd9}, ! Handle
  1IN Wood Decking,                       ! Name
  MediumSmooth,                           ! Roughness
  0.0254,                                 ! Thickness {m}
  0.1211,                                 ! Conductivity {W/m-K}
  593,                                    ! Density {kg/m3}
  2510,                                   ! Specific Heat {J/kg-K}
  0.9,                                    ! Thermal Absorptance
  0.78,                                   ! Solar Absorptance
  0.78;                                   ! Visible Absorptance

OS:Material,
  {16e41c82-5a37-477c-9a4c-44ee017bda29}, ! Handle
  Roof Insulation [5],                    ! Name
  MediumRough,                            ! Roughness
  0.286906,                               ! Thickness {m}
  0.049,                                  ! Conductivity {W/m-K}
  265,                                    ! Density {kg/m3}
  836.8,                                  ! Specific Heat {J/kg-K}
  0.9,                                    ! Thermal Absorptance
  0.7,                                    ! Solar Absorptance
  0.7;                                    ! Visible Absorptance

OS:Material,
  {25c2c060-9c99-43ae-9a7a-5de5fad076f8}, ! Handle
  1/2IN Gypsum,                           ! Name
  Smooth,                                 ! Roughness
  0.01271,                                ! Thickness {m}
  0.16,                                   ! Conductivity {W/m-K}
  784.9,                                  ! Density {kg/m3}
  830,                                    ! Specific Heat {J/kg-K}
  0.9,                                    ! Thermal Absorptance
  0.92,                                   ! Solar Absorptance
  0.92;                                   ! Visible Absorptance

OS:ComponentCost:LineItem,
  {3c56487c-31a0-4d84-96bb-53605a3a7661}, ! Handle
  90.1-2001 Res B17 Roof Attic and Other, ! Name
  ,                                       ! Type
  Construction,                           ! Line Item Type
  90.1-2001 Res B17 Roof Attic and Other, ! Item Name
  ,                                       ! Object End Use Key
  ,                                       ! Quantity {dimensionless}
  34.757,                                 ! Material Cost {$}
  CostPerArea;                            ! Material Cost Units

