
OS:Version,
  {a43010b9-cbad-4bcd-8ca9-5b6265b5029a}, ! Handle
  0.9.3;                                  ! Version Identifier

OS:Construction,
  {e14a5012-1e55-48f3-919b-6e88ad84fb19}, ! Handle
  90.1-2001 Res B17 Roof Attic and Other, ! Name
  ,                                       ! Surface Rendering Name
  {1572ade4-a0b3-4011-821e-e235f376a366}, ! Layer 1
  {0cc29e18-78aa-4c36-b311-e4dcfcd5a250}, ! Layer 2
  {55ba00de-4bfa-40f6-9947-e3c4df689d31}, ! Layer 3
  {b6b6bef7-89b8-4e48-9048-7e17f38ac51c}; ! Layer 4

OS:Material,
  {1572ade4-a0b3-4011-821e-e235f376a366}, ! Handle
  Wood Shingles,                          ! Name
  VeryRough,                              ! Roughness
  0.0178,                                 ! Thickness {m}
  0.115,                                  ! Conductivity {W/m-K}
  513,                                    ! Density {kg/m3}
  1255,                                   ! Specific Heat {J/kg-K}
  0.9,                                    ! Thermal Absorptance
  0.78,                                   ! Solar Absorptance
  0.78;                                   ! Visible Absorptance

OS:Material,
  {0cc29e18-78aa-4c36-b311-e4dcfcd5a250}, ! Handle
  1IN Wood Decking,                       ! Name
  MediumSmooth,                           ! Roughness
  0.0254,                                 ! Thickness {m}
  0.1211,                                 ! Conductivity {W/m-K}
  593,                                    ! Density {kg/m3}
  2510,                                   ! Specific Heat {J/kg-K}
  0.9,                                    ! Thermal Absorptance
  0.78,                                   ! Solar Absorptance
  0.78;                                   ! Visible Absorptance

OS:Material,
  {55ba00de-4bfa-40f6-9947-e3c4df689d31}, ! Handle
  Roof Insulation [5],                    ! Name
  MediumRough,                            ! Roughness
  0.286906,                               ! Thickness {m}
  0.049,                                  ! Conductivity {W/m-K}
  265,                                    ! Density {kg/m3}
  836.8,                                  ! Specific Heat {J/kg-K}
  0.9,                                    ! Thermal Absorptance
  0.7,                                    ! Solar Absorptance
  0.7;                                    ! Visible Absorptance

OS:Material,
  {b6b6bef7-89b8-4e48-9048-7e17f38ac51c}, ! Handle
  1/2IN Gypsum,                           ! Name
  Smooth,                                 ! Roughness
  0.01271,                                ! Thickness {m}
  0.16,                                   ! Conductivity {W/m-K}
  784.9,                                  ! Density {kg/m3}
  830,                                    ! Specific Heat {J/kg-K}
  0.9,                                    ! Thermal Absorptance
  0.92,                                   ! Solar Absorptance
  0.92;                                   ! Visible Absorptance

OS:ComponentCost:LineItem,
  {5b1e3d9c-ee10-49bb-99d6-081d273afd16}, ! Handle
  90.1-2001 Res B17 Roof Attic and Other, ! Name
  ,                                       ! Type
  Construction,                           ! Line Item Type
  90.1-2001 Res B17 Roof Attic and Other, ! Item Name
  ,                                       ! Object End Use Key
  ,                                       ! Quantity {dimensionless}
  34.757,                                 ! Material Cost {$}
  CostPerArea;                            ! Material Cost Units

OS:ComponentData,
  {cfc12631-ab19-47fe-be22-330aa5524951}, ! Handle
  Component Data 1,                       ! Name
  {2504cdb4-58eb-4597-9f7b-1603044f1935}, ! UUID
  {e01691c9-de2f-4be0-9750-abeb17dd7188}, ! Version UUID
  1363981550,                             ! Creation Timestamp
  1363981550,                             ! Version Timestamp
  {e14a5012-1e55-48f3-919b-6e88ad84fb19}, ! Name of Object 1
  {1572ade4-a0b3-4011-821e-e235f376a366}, ! Name of Object 2
  {0cc29e18-78aa-4c36-b311-e4dcfcd5a250}, ! Name of Object 3
  {55ba00de-4bfa-40f6-9947-e3c4df689d31}, ! Name of Object 4
  {b6b6bef7-89b8-4e48-9048-7e17f38ac51c}, ! Name of Object 5
  {5b1e3d9c-ee10-49bb-99d6-081d273afd16}; ! Name of Object 6

