
OS:Version,
  {0777e005-bf68-4c6e-b556-528d39c3e1df}, ! Handle
  0.9.3;                                  ! Version Identifier

OS:Material,
  {80c7170e-ddfe-46e7-b25b-7a94da485c8d}, ! Handle
  1/2IN Gypsum,                           ! Name
  Smooth,                                 ! Roughness
  0.01271,                                ! Thickness {m}
  0.16,                                   ! Conductivity {W/m-K}
  784.9,                                  ! Density {kg/m3}
  830,                                    ! Specific Heat {J/kg-K}
  0.9,                                    ! Thermal Absorptance
  0.92,                                   ! Solar Absorptance
  0.92;                                   ! Visible Absorptance

OS:Material,
  {9fce13f7-8f8d-4b61-b212-25e9d0c8e3ee}, ! Handle
  Wall Insulation [59],                   ! Name
  MediumRough,                            ! Roughness
  0.0965812,                              ! Thickness {m}
  0.045,                                  ! Conductivity {W/m-K}
  265,                                    ! Density {kg/m3}
  836.8,                                  ! Specific Heat {J/kg-K}
  0.9,                                    ! Thermal Absorptance
  0.7,                                    ! Solar Absorptance
  0.7;                                    ! Visible Absorptance

OS:ComponentCost:LineItem,
  {92747adc-2de0-4807-8b58-1ee25df24481}, ! Handle
  AEDG SHC Nonres 3A Ext Wall Steel-Framed, ! Name
  ,                                       ! Type
  Construction,                           ! Line Item Type
  AEDG SHC Nonres 3A Ext Wall Steel-Framed, ! Item Name
  ,                                       ! Object End Use Key
  ,                                       ! Quantity {dimensionless}
  0,                                      ! Material Cost {$}
  CostPerArea;                            ! Material Cost Units

OS:Material:NoMass,
  {03a73a67-a627-410f-bdc6-9e0e59bb9cb4}, ! Handle
  MAT-SHEATH,                             ! Name
  Rough,                                  ! Roughness
  0.36256,                                ! Thermal Resistance {m2-K/W}
  0.9,                                    ! Thermal Absorptance
  0.7,                                    ! Solar Absorptance
  0.7;                                    ! Visible Absorptance

OS:Construction,
  {059e6c67-8f5c-4c30-b1d6-40824f42d412}, ! Handle
  AEDG SHC Nonres 3A Ext Wall Steel-Framed, ! Name
  ,                                       ! Surface Rendering Name
  {03a73a67-a627-410f-bdc6-9e0e59bb9cb4}, ! Layer 1
  {9fce13f7-8f8d-4b61-b212-25e9d0c8e3ee}, ! Layer 2
  {80c7170e-ddfe-46e7-b25b-7a94da485c8d}; ! Layer 3

