
OS:Version,
  {eb1c7f5e-0d5e-425b-9dbc-914ed595b605}, ! Handle
  0.9.3;                                  ! Version Identifier

OS:Construction,
  {8cabf63c-0ba2-4e1c-8e72-3c0b01b4f333}, ! Handle
  90.1-2001 Nonres B6 Ext Wall Steel-Framed, ! Name
  ,                                       ! Surface Rendering Name
  {0cafc66f-c686-4113-95ae-9c6fff1ceaf4}, ! Layer 1
  {db8ea298-d50f-4c48-8aa1-962f39c70083}, ! Layer 2
  {4099e8a4-ca2c-46e7-80b0-129a58579122}; ! Layer 3

OS:Material:NoMass,
  {0cafc66f-c686-4113-95ae-9c6fff1ceaf4}, ! Handle
  MAT-SHEATH,                             ! Name
  Rough,                                  ! Roughness
  0.36256,                                ! Thermal Resistance {m2-K/W}
  0.9,                                    ! Thermal Absorptance
  0.7,                                    ! Solar Absorptance
  0.7;                                    ! Visible Absorptance

OS:Material,
  {db8ea298-d50f-4c48-8aa1-962f39c70083}, ! Handle
  Wall Insulation [1],                    ! Name
  MediumRough,                            ! Roughness
  0.0373223,                              ! Thickness {m}
  0.045,                                  ! Conductivity {W/m-K}
  265,                                    ! Density {kg/m3}
  836.8,                                  ! Specific Heat {J/kg-K}
  0.9,                                    ! Thermal Absorptance
  0.7,                                    ! Solar Absorptance
  0.7;                                    ! Visible Absorptance

OS:Material,
  {4099e8a4-ca2c-46e7-80b0-129a58579122}, ! Handle
  1/2IN Gypsum,                           ! Name
  Smooth,                                 ! Roughness
  0.01271,                                ! Thickness {m}
  0.16,                                   ! Conductivity {W/m-K}
  784.9,                                  ! Density {kg/m3}
  830,                                    ! Specific Heat {J/kg-K}
  0.9,                                    ! Thermal Absorptance
  0.92,                                   ! Solar Absorptance
  0.92;                                   ! Visible Absorptance

OS:ComponentCost:LineItem,
  {844cd412-1d9b-448a-a22d-cf8302134e23}, ! Handle
  90.1-2001 Nonres B6 Ext Wall Steel-Framed, ! Name
  ,                                       ! Type
  Construction,                           ! Line Item Type
  90.1-2001 Nonres B6 Ext Wall Steel-Framed, ! Item Name
  ,                                       ! Object End Use Key
  ,                                       ! Quantity {dimensionless}
  87.08,                                  ! Material Cost {$}
  CostPerArea;                            ! Material Cost Units

OS:ComponentData,
  {741786d3-7cf9-437d-9b4e-a51d22d85b80}, ! Handle
  Component Data 1,                       ! Name
  {73440f28-511b-43ee-96ab-f2d68f3cc61b}, ! UUID
  {32c9cf57-3b66-4ea7-9d3f-27d4ad743c98}, ! Version UUID
  1363981316,                             ! Creation Timestamp
  1363981316,                             ! Version Timestamp
  {8cabf63c-0ba2-4e1c-8e72-3c0b01b4f333}, ! Name of Object 1
  {0cafc66f-c686-4113-95ae-9c6fff1ceaf4}, ! Name of Object 2
  {db8ea298-d50f-4c48-8aa1-962f39c70083}, ! Name of Object 3
  {4099e8a4-ca2c-46e7-80b0-129a58579122}, ! Name of Object 4
  {844cd412-1d9b-448a-a22d-cf8302134e23}; ! Name of Object 5

