
OS:Version,
  {e2f9585d-978e-4f09-bc6b-9eb45824805a}, ! Handle
  0.9.3;                                  ! Version Identifier

OS:ComponentCost:LineItem,
  {36205d07-1f97-4c7b-a795-e24231633718}, ! Handle
  90.1-2001 Nonres B6 Ext Wall Steel-Framed, ! Name
  ,                                       ! Type
  Construction,                           ! Line Item Type
  90.1-2001 Nonres B6 Ext Wall Steel-Framed, ! Item Name
  ,                                       ! Object End Use Key
  ,                                       ! Quantity {dimensionless}
  87.08,                                  ! Material Cost {$}
  CostPerArea;                            ! Material Cost Units

OS:Material,
  {77125b53-4ca8-46c3-b90a-6fe1ff3552d9}, ! Handle
  1/2IN Gypsum,                           ! Name
  Smooth,                                 ! Roughness
  0.01271,                                ! Thickness {m}
  0.16,                                   ! Conductivity {W/m-K}
  784.9,                                  ! Density {kg/m3}
  830,                                    ! Specific Heat {J/kg-K}
  0.9,                                    ! Thermal Absorptance
  0.92,                                   ! Solar Absorptance
  0.92;                                   ! Visible Absorptance

OS:Construction,
  {8a54c8fa-a09b-49c6-81e5-d87e6a3d25db}, ! Handle
  90.1-2001 Nonres B6 Ext Wall Steel-Framed, ! Name
  ,                                       ! Surface Rendering Name
  {8b0a74ed-ac4b-4fb0-a194-cad1956ade58}, ! Layer 1
  {3b3542e2-1dfe-4c41-8f08-4153adba190b}, ! Layer 2
  {77125b53-4ca8-46c3-b90a-6fe1ff3552d9}; ! Layer 3

OS:Material:NoMass,
  {8b0a74ed-ac4b-4fb0-a194-cad1956ade58}, ! Handle
  MAT-SHEATH,                             ! Name
  Rough,                                  ! Roughness
  0.36256,                                ! Thermal Resistance {m2-K/W}
  0.9,                                    ! Thermal Absorptance
  0.7,                                    ! Solar Absorptance
  0.7;                                    ! Visible Absorptance

OS:Material,
  {3b3542e2-1dfe-4c41-8f08-4153adba190b}, ! Handle
  Wall Insulation [1],                    ! Name
  MediumRough,                            ! Roughness
  0.0373223,                              ! Thickness {m}
  0.045,                                  ! Conductivity {W/m-K}
  265,                                    ! Density {kg/m3}
  836.8,                                  ! Specific Heat {J/kg-K}
  0.9,                                    ! Thermal Absorptance
  0.7,                                    ! Solar Absorptance
  0.7;                                    ! Visible Absorptance

