
OS:Version,
  {ab46c7af-cd6a-4e2a-8fed-902990ad5feb}, ! Handle
  0.9.3;                                  ! Version Identifier

OS:Construction,
  {35cba6c6-271e-4029-ae60-6062f6456e70}, ! Handle
  AEDG SHC Nonres 3A Skylight without Curb, ! Name
  ,                                       ! Surface Rendering Name
  {ff4f79bb-e3e4-4d7f-820c-7278ec960a95}; ! Layer 1

OS:WindowMaterial:Glazing,
  {ff4f79bb-e3e4-4d7f-820c-7278ec960a95}, ! Handle
  Theoretical Glass [239],                ! Name
  SpectralAverage,                        ! Optical Data Type
  ,                                       ! Window Glass Spectral Data Set Name
  0.003,                                  ! Thickness {m}
  0.332818,                               ! Solar Transmittance at Normal Incidence
  0.617182,                               ! Front Side Solar Reflectance at Normal Incidence
  0.617182,                               ! Back Side Solar Reflectance at Normal Incidence
  0.3507,                                 ! Visible Transmittance at Normal Incidence
  0.5993,                                 ! Front Side Visible Reflectance at Normal Incidence
  0.5993,                                 ! Back Side Visible Reflectance at Normal Incidence
  0,                                      ! Infrared Transmittance at Normal Incidence
  0.84,                                   ! Front Side Infrared Hemispherical Emissivity
  0.84,                                   ! Back Side Infrared Hemispherical Emissivity
  0.0293228;                              ! Conductivity {W/m-K}

OS:ComponentCost:LineItem,
  {1bccb2c3-bf8a-4405-899e-ab5a64a1070d}, ! Handle
  AEDG SHC Nonres 3A Skylight without Curb, ! Name
  ,                                       ! Type
  Construction,                           ! Line Item Type
  AEDG SHC Nonres 3A Skylight without Curb, ! Item Name
  ,                                       ! Object End Use Key
  ,                                       ! Quantity {dimensionless}
  0,                                      ! Material Cost {$}
  CostPerArea;                            ! Material Cost Units

OS:ComponentData,
  {5f8c8823-c205-483c-b8b8-051925ace069}, ! Handle
  Component Data 1,                       ! Name
  {e0061c10-0d86-488f-8fd3-75a3336dabf7}, ! UUID
  {4fad5f57-d94a-4224-9423-6254571f8db6}, ! Version UUID
  1363981919,                             ! Creation Timestamp
  1363981919,                             ! Version Timestamp
  {35cba6c6-271e-4029-ae60-6062f6456e70}, ! Name of Object 1
  {ff4f79bb-e3e4-4d7f-820c-7278ec960a95}, ! Name of Object 2
  {1bccb2c3-bf8a-4405-899e-ab5a64a1070d}; ! Name of Object 3

