
OS:Version,
  {75858424-1787-41dd-a339-ff2feeda77bf}, ! Handle
  0.9.3;                                  ! Version Identifier

OS:Construction,
  {9b9de7dc-1c0b-4197-8df0-8f8b3360e937}, ! Handle
  AEDG SHC Nonres 3A Skylight without Curb, ! Name
  ,                                       ! Surface Rendering Name
  {c098e3cd-50c6-477e-a525-f447c440a3c8}; ! Layer 1

OS:WindowMaterial:Glazing,
  {c098e3cd-50c6-477e-a525-f447c440a3c8}, ! Handle
  Theoretical Glass [239],                ! Name
  SpectralAverage,                        ! Optical Data Type
  ,                                       ! Window Glass Spectral Data Set Name
  0.003,                                  ! Thickness {m}
  0.332818,                               ! Solar Transmittance at Normal Incidence
  0.617182,                               ! Front Side Solar Reflectance at Normal Incidence
  0.617182,                               ! Back Side Solar Reflectance at Normal Incidence
  0.3507,                                 ! Visible Transmittance at Normal Incidence
  0.5993,                                 ! Front Side Visible Reflectance at Normal Incidence
  0.5993,                                 ! Back Side Visible Reflectance at Normal Incidence
  0,                                      ! Infrared Transmittance at Normal Incidence
  0.84,                                   ! Front Side Infrared Hemispherical Emissivity
  0.84,                                   ! Back Side Infrared Hemispherical Emissivity
  0.0293228;                              ! Conductivity {W/m-K}

OS:ComponentCost:LineItem,
  {c0c9806f-c278-473e-9291-f613c5562289}, ! Handle
  AEDG SHC Nonres 3A Skylight without Curb, ! Name
  ,                                       ! Type
  Construction,                           ! Line Item Type
  AEDG SHC Nonres 3A Skylight without Curb, ! Item Name
  ,                                       ! Object End Use Key
  ,                                       ! Quantity {dimensionless}
  0,                                      ! Material Cost {$}
  CostPerArea;                            ! Material Cost Units

