
OS:Version,
  {d4f15e94-c69b-4d21-9864-70a7e212a725}, ! Handle
  0.9.3;                                  ! Version Identifier

OS:Material,
  {d7adec83-62d6-4cdf-a9cb-d9473ccf86a9}, ! Handle
  Roof Membrane,                          ! Name
  VeryRough,                              ! Roughness
  0.0095,                                 ! Thickness {m}
  0.16,                                   ! Conductivity {W/m-K}
  1121.29,                                ! Density {kg/m3}
  1460,                                   ! Specific Heat {J/kg-K}
  0.9,                                    ! Thermal Absorptance
  0.7,                                    ! Solar Absorptance
  0.7;                                    ! Visible Absorptance

OS:Construction,
  {a7a566e3-1a60-4bdb-8705-991213f4b411}, ! Handle
  90.1-2004 Res 6B Roof IEAD,             ! Name
  ,                                       ! Surface Rendering Name
  {d7adec83-62d6-4cdf-a9cb-d9473ccf86a9}, ! Layer 1
  {9594df2c-2dc4-46e7-b367-10db66d77da1}, ! Layer 2
  {9a1b2f62-fe15-453a-9c8c-62e9f41f8bf3}; ! Layer 3

OS:Material,
  {9594df2c-2dc4-46e7-b367-10db66d77da1}, ! Handle
  Roof Insulation,                        ! Name
  MediumRough,                            ! Roughness
  0.124958,                               ! Thickness {m}
  0.049,                                  ! Conductivity {W/m-K}
  265,                                    ! Density {kg/m3}
  836.8,                                  ! Specific Heat {J/kg-K}
  0.9,                                    ! Thermal Absorptance
  0.7,                                    ! Solar Absorptance
  0.7;                                    ! Visible Absorptance

OS:Material,
  {9a1b2f62-fe15-453a-9c8c-62e9f41f8bf3}, ! Handle
  Metal Decking,                          ! Name
  MediumSmooth,                           ! Roughness
  0.001524,                               ! Thickness {m}
  45.006,                                 ! Conductivity {W/m-K}
  7680,                                   ! Density {kg/m3}
  418.4,                                  ! Specific Heat {J/kg-K}
  0.9,                                    ! Thermal Absorptance
  0.7,                                    ! Solar Absorptance
  0.3;                                    ! Visible Absorptance

OS:ComponentCost:LineItem,
  {7f5d5d5c-3184-49f0-89f0-782b4fdd367c}, ! Handle
  90.1-2004 Res 6B Roof IEAD,             ! Name
  ,                                       ! Type
  Construction,                           ! Line Item Type
  90.1-2004 Res 6B Roof IEAD,             ! Item Name
  ,                                       ! Object End Use Key
  ,                                       ! Quantity {dimensionless}
  49.208,                                 ! Material Cost {$}
  CostPerArea;                            ! Material Cost Units

