
OS:Version,
  {1e864401-8005-4940-b9d9-cc1dc64eb504}, ! Handle
  0.9.3;                                  ! Version Identifier

OS:Material,
  {5d6d24c2-8dd9-4bde-bc57-6c9e76fd7042}, ! Handle
  Floor Insulation [55],                  ! Name
  MediumRough,                            ! Roughness
  0.058588,                               ! Thickness {m}
  0.045,                                  ! Conductivity {W/m-K}
  265,                                    ! Density {kg/m3}
  836.8,                                  ! Specific Heat {J/kg-K}
  0.9,                                    ! Thermal Absorptance
  0.7,                                    ! Solar Absorptance
  0.7;                                    ! Visible Absorptance

OS:Material,
  {2c644d20-23b5-485a-82a4-4b0947d0a46a}, ! Handle
  MAT-CC05 8 HW CONCRETE,                 ! Name
  Rough,                                  ! Roughness
  0.20321,                                ! Thickness {m}
  1.311,                                  ! Conductivity {W/m-K}
  2240,                                   ! Density {kg/m3}
  836.8,                                  ! Specific Heat {J/kg-K}
  0.9,                                    ! Thermal Absorptance
  0.7,                                    ! Solar Absorptance
  0.7;                                    ! Visible Absorptance

OS:ComponentCost:LineItem,
  {2efb64ad-190b-48d0-8b94-c4ec6250493a}, ! Handle
  Title 24-2008 Nonres 14 Exposed Floor Mass, ! Name
  ,                                       ! Type
  Construction,                           ! Line Item Type
  Title 24-2008 Nonres 14 Exposed Floor Mass, ! Item Name
  ,                                       ! Object End Use Key
  ,                                       ! Quantity {dimensionless}
  48.922,                                 ! Material Cost {$}
  CostPerArea;                            ! Material Cost Units

OS:Material:NoMass,
  {93a3a4f1-3bcb-45b5-a024-f3c2779475f9}, ! Handle
  CP02 CARPET PAD,                        ! Name
  VeryRough,                              ! Roughness
  0.21648,                                ! Thermal Resistance {m2-K/W}
  0.9,                                    ! Thermal Absorptance
  0.7,                                    ! Solar Absorptance
  0.8;                                    ! Visible Absorptance

OS:Construction,
  {6a41807d-1ac8-4e1c-b082-d9163afd765c}, ! Handle
  Title 24-2008 Nonres 14 Exposed Floor Mass, ! Name
  ,                                       ! Surface Rendering Name
  {5d6d24c2-8dd9-4bde-bc57-6c9e76fd7042}, ! Layer 1
  {2c644d20-23b5-485a-82a4-4b0947d0a46a}, ! Layer 2
  {93a3a4f1-3bcb-45b5-a024-f3c2779475f9}; ! Layer 3

