
OS:Version,
  {ba15c35e-9b16-4d7e-ba83-2f95fcf4d473}, ! Handle
  0.9.3;                                  ! Version Identifier

OS:WindowMaterial:Glazing,
  {58611b37-5a1f-44cb-82f3-b659666109d6}, ! Handle
  Theoretical Glass [63],                 ! Name
  SpectralAverage,                        ! Optical Data Type
  ,                                       ! Window Glass Spectral Data Set Name
  0.003,                                  ! Thickness {m}
  0.177255,                               ! Solar Transmittance at Normal Incidence
  0.772745,                               ! Front Side Solar Reflectance at Normal Incidence
  0.772745,                               ! Back Side Solar Reflectance at Normal Incidence
  0.176052,                               ! Visible Transmittance at Normal Incidence
  0.773948,                               ! Front Side Visible Reflectance at Normal Incidence
  0.773948,                               ! Back Side Visible Reflectance at Normal Incidence
  0,                                      ! Infrared Transmittance at Normal Incidence
  0.999,                                  ! Front Side Infrared Hemispherical Emissivity
  0.999,                                  ! Back Side Infrared Hemispherical Emissivity
  72.7123;                                ! Conductivity {W/m-K}

OS:Construction,
  {a62d32fa-19f9-49a0-892e-8474ca94acba}, ! Handle
  90.1-1999 Res B1 Skylight without Curb, ! Name
  ,                                       ! Surface Rendering Name
  {58611b37-5a1f-44cb-82f3-b659666109d6}; ! Layer 1

OS:ComponentCost:LineItem,
  {a28cd4f2-4d33-4c91-844f-5f03b541d66b}, ! Handle
  90.1-1999 Res B1 Skylight without Curb, ! Name
  ,                                       ! Type
  Construction,                           ! Line Item Type
  90.1-1999 Res B1 Skylight without Curb, ! Item Name
  ,                                       ! Object End Use Key
  ,                                       ! Quantity {dimensionless}
  539.136,                                ! Material Cost {$}
  CostPerArea;                            ! Material Cost Units

