
OS:Version,
  {2ad93deb-78d8-4d2e-bbad-b8e106671ce5}, ! Handle
  0.9.3;                                  ! Version Identifier

OS:Construction,
  {f130e125-3130-422c-9648-f3d2f14b971e}, ! Handle
  90.1-1999 Res B1 Skylight without Curb, ! Name
  ,                                       ! Surface Rendering Name
  {69e55361-19b1-4db3-bc2a-ecc797b49b8f}; ! Layer 1

OS:WindowMaterial:Glazing,
  {69e55361-19b1-4db3-bc2a-ecc797b49b8f}, ! Handle
  Theoretical Glass [63],                 ! Name
  SpectralAverage,                        ! Optical Data Type
  ,                                       ! Window Glass Spectral Data Set Name
  0.003,                                  ! Thickness {m}
  0.177255,                               ! Solar Transmittance at Normal Incidence
  0.772745,                               ! Front Side Solar Reflectance at Normal Incidence
  0.772745,                               ! Back Side Solar Reflectance at Normal Incidence
  0.176052,                               ! Visible Transmittance at Normal Incidence
  0.773948,                               ! Front Side Visible Reflectance at Normal Incidence
  0.773948,                               ! Back Side Visible Reflectance at Normal Incidence
  0,                                      ! Infrared Transmittance at Normal Incidence
  0.999,                                  ! Front Side Infrared Hemispherical Emissivity
  0.999,                                  ! Back Side Infrared Hemispherical Emissivity
  72.7123;                                ! Conductivity {W/m-K}

OS:ComponentCost:LineItem,
  {f8a58f3c-72af-45b5-8133-b1007ec23b32}, ! Handle
  90.1-1999 Res B1 Skylight without Curb, ! Name
  ,                                       ! Type
  Construction,                           ! Line Item Type
  90.1-1999 Res B1 Skylight without Curb, ! Item Name
  ,                                       ! Object End Use Key
  ,                                       ! Quantity {dimensionless}
  539.136,                                ! Material Cost {$}
  CostPerArea;                            ! Material Cost Units

OS:ComponentData,
  {9c07b89f-f16d-488e-a8ac-dcee37e14504}, ! Handle
  Component Data 1,                       ! Name
  {bdd747ee-3aef-45e9-8c11-04b6fda5f757}, ! UUID
  {d8abe605-4e07-4d73-8c44-9c56d938951b}, ! Version UUID
  1363981166,                             ! Creation Timestamp
  1363981166,                             ! Version Timestamp
  {f130e125-3130-422c-9648-f3d2f14b971e}, ! Name of Object 1
  {69e55361-19b1-4db3-bc2a-ecc797b49b8f}, ! Name of Object 2
  {f8a58f3c-72af-45b5-8133-b1007ec23b32}; ! Name of Object 3

