
OS:Version,
  {08beb01c-01cf-4400-bac1-fecefd3776f7}, ! Handle
  0.9.3;                                  ! Version Identifier

OS:Construction,
  {2b09c844-c4e5-4cf5-a486-f002bd95b0f7}, ! Handle
  Title 24-2008 Nonres 6 Ext Slab Unheated - 8in Slab without Carpet, ! Name
  ,                                       ! Surface Rendering Name
  {1ff49cf7-40d4-4127-ba5a-a116fbac7c15}; ! Layer 1

OS:Material,
  {1ff49cf7-40d4-4127-ba5a-a116fbac7c15}, ! Handle
  MAT-CC05 8 HW CONCRETE,                 ! Name
  Rough,                                  ! Roughness
  0.20321,                                ! Thickness {m}
  1.311,                                  ! Conductivity {W/m-K}
  2240,                                   ! Density {kg/m3}
  836.8,                                  ! Specific Heat {J/kg-K}
  0.9,                                    ! Thermal Absorptance
  0.7,                                    ! Solar Absorptance
  0.7;                                    ! Visible Absorptance

OS:ComponentCost:LineItem,
  {3589be89-0e7a-4484-9d9a-c57779d24621}, ! Handle
  Title 24-2008 Nonres 6 Ext Slab Unheated - 8in Slab without Carpet, ! Name
  ,                                       ! Type
  Construction,                           ! Line Item Type
  Title 24-2008 Nonres 6 Ext Slab Unheated - 8in Slab without Carpet, ! Item Name
  ,                                       ! Object End Use Key
  ,                                       ! Quantity {dimensionless}
  45.52,                                  ! Material Cost {$}
  CostPerArea;                            ! Material Cost Units

