
OS:Version,
  {e9dda7fe-72c6-48c8-9923-5daffbccd6b4}, ! Handle
  0.9.3;                                  ! Version Identifier

OS:ComponentCost:LineItem,
  {7efcf05c-eed9-4c78-8865-3fbc2a9c3757}, ! Handle
  90.1-2004 Nonres 2A Window Fixed,       ! Name
  ,                                       ! Type
  Construction,                           ! Line Item Type
  90.1-2004 Nonres 2A Window Fixed,       ! Item Name
  ,                                       ! Object End Use Key
  ,                                       ! Quantity {dimensionless}
  462.094,                                ! Material Cost {$}
  CostPerArea;                            ! Material Cost Units

OS:Construction,
  {0597391d-5876-4735-9f19-756e0bfbf4d1}, ! Handle
  90.1-2004 Nonres 2A Window Fixed,       ! Name
  ,                                       ! Surface Rendering Name
  {322091de-319a-4eaa-a6cc-f7aa6aa8fc92}; ! Layer 1

OS:WindowMaterial:Glazing,
  {322091de-319a-4eaa-a6cc-f7aa6aa8fc92}, ! Handle
  Theoretical Glass [125],                ! Name
  SpectralAverage,                        ! Optical Data Type
  ,                                       ! Window Glass Spectral Data Set Name
  0.003,                                  ! Thickness {m}
  0.426406,                               ! Solar Transmittance at Normal Incidence
  0.523594,                               ! Front Side Solar Reflectance at Normal Incidence
  0.523594,                               ! Back Side Solar Reflectance at Normal Incidence
  0.439975,                               ! Visible Transmittance at Normal Incidence
  0.510025,                               ! Front Side Visible Reflectance at Normal Incidence
  0.510025,                               ! Back Side Visible Reflectance at Normal Incidence
  0,                                      ! Infrared Transmittance at Normal Incidence
  0.999,                                  ! Front Side Infrared Hemispherical Emissivity
  0.999,                                  ! Back Side Infrared Hemispherical Emissivity
  3.36874;                                ! Conductivity {W/m-K}

