
OS:Version,
  {d621ef83-92ac-4759-b8a5-25d8c20f6f3d}, ! Handle
  0.9.3;                                  ! Version Identifier

OS:Construction,
  {55d78646-38f2-43ed-81e2-bbd096b5e666}, ! Handle
  90.1 Windows Skylight Plastic Skylight with Curb 240 AcrQudMWVnl, ! Name
  ,                                       ! Surface Rendering Name
  {33fac3bf-0092-4d31-ba2e-0318c403f6f7}; ! Layer 1

OS:WindowMaterial:Glazing,
  {33fac3bf-0092-4d31-ba2e-0318c403f6f7}, ! Handle
  Theoretical Glass [632],                ! Name
  SpectralAverage,                        ! Optical Data Type
  ,                                       ! Window Glass Spectral Data Set Name
  0.003,                                  ! Thickness {m}
  0.255486,                               ! Solar Transmittance at Normal Incidence
  0.694514,                               ! Front Side Solar Reflectance at Normal Incidence
  0.694514,                               ! Back Side Solar Reflectance at Normal Incidence
  0.211308,                               ! Visible Transmittance at Normal Incidence
  0.738692,                               ! Front Side Visible Reflectance at Normal Incidence
  0.738692,                               ! Back Side Visible Reflectance at Normal Incidence
  0,                                      ! Infrared Transmittance at Normal Incidence
  0.9,                                    ! Front Side Infrared Hemispherical Emissivity
  0.9,                                    ! Back Side Infrared Hemispherical Emissivity
  0.0144869;                              ! Conductivity {W/m-K}

