
OS:Version,
  {195e1f22-04b8-4405-8abe-1d1885dd2162}, ! Handle
  0.9.3;                                  ! Version Identifier

OS:Construction,
  {cfdab3c8-95b9-48a1-a2a8-3338ff5b07db}, ! Handle
  90.1 Windows Skylight Plastic Skylight with Curb 240 AcrQudMWVnl, ! Name
  ,                                       ! Surface Rendering Name
  {bc921c72-2d4d-4981-b633-53d5b76dc688}; ! Layer 1

OS:WindowMaterial:Glazing,
  {bc921c72-2d4d-4981-b633-53d5b76dc688}, ! Handle
  Theoretical Glass [632],                ! Name
  SpectralAverage,                        ! Optical Data Type
  ,                                       ! Window Glass Spectral Data Set Name
  0.003,                                  ! Thickness {m}
  0.255486,                               ! Solar Transmittance at Normal Incidence
  0.694514,                               ! Front Side Solar Reflectance at Normal Incidence
  0.694514,                               ! Back Side Solar Reflectance at Normal Incidence
  0.211308,                               ! Visible Transmittance at Normal Incidence
  0.738692,                               ! Front Side Visible Reflectance at Normal Incidence
  0.738692,                               ! Back Side Visible Reflectance at Normal Incidence
  0,                                      ! Infrared Transmittance at Normal Incidence
  0.9,                                    ! Front Side Infrared Hemispherical Emissivity
  0.9,                                    ! Back Side Infrared Hemispherical Emissivity
  0.0144869;                              ! Conductivity {W/m-K}

OS:ComponentData,
  {3d343fc9-65aa-48e4-924d-3510d03d5486}, ! Handle
  Component Data 1,                       ! Name
  {d7a80783-0a37-4044-b3da-78fe348b58c3}, ! UUID
  {818c0f7b-2803-4833-b6df-14c64993141c}, ! Version UUID
  1363981033,                             ! Creation Timestamp
  1363981033,                             ! Version Timestamp
  {cfdab3c8-95b9-48a1-a2a8-3338ff5b07db}, ! Name of Object 1
  {bc921c72-2d4d-4981-b633-53d5b76dc688}; ! Name of Object 2

