
OS:Version,
  {b2bc9103-e16c-41da-b76c-55bc609807c0}, ! Handle
  0.9.3;                                  ! Version Identifier

OS:Construction,
  {08b888f3-e7d5-49bb-9723-489d1de2e32e}, ! Handle
  90.1-2004 Nonres 6B Roof IEAD,          ! Name
  ,                                       ! Surface Rendering Name
  {4d6b36a2-b536-41e3-9d64-9718a812260d}, ! Layer 1
  {053d1ee6-f905-44a1-b462-70df91ccb2e9}, ! Layer 2
  {fe2e11f6-26f7-4202-bb9e-aedadd50bb66}; ! Layer 3

OS:Material,
  {4d6b36a2-b536-41e3-9d64-9718a812260d}, ! Handle
  Roof Membrane,                          ! Name
  VeryRough,                              ! Roughness
  0.0095,                                 ! Thickness {m}
  0.16,                                   ! Conductivity {W/m-K}
  1121.29,                                ! Density {kg/m3}
  1460,                                   ! Specific Heat {J/kg-K}
  0.9,                                    ! Thermal Absorptance
  0.7,                                    ! Solar Absorptance
  0.7;                                    ! Visible Absorptance

OS:Material,
  {053d1ee6-f905-44a1-b462-70df91ccb2e9}, ! Handle
  Roof Insulation,                        ! Name
  MediumRough,                            ! Roughness
  0.124958,                               ! Thickness {m}
  0.049,                                  ! Conductivity {W/m-K}
  265,                                    ! Density {kg/m3}
  836.8,                                  ! Specific Heat {J/kg-K}
  0.9,                                    ! Thermal Absorptance
  0.7,                                    ! Solar Absorptance
  0.7;                                    ! Visible Absorptance

OS:Material,
  {fe2e11f6-26f7-4202-bb9e-aedadd50bb66}, ! Handle
  Metal Decking,                          ! Name
  MediumSmooth,                           ! Roughness
  0.001524,                               ! Thickness {m}
  45.006,                                 ! Conductivity {W/m-K}
  7680,                                   ! Density {kg/m3}
  418.4,                                  ! Specific Heat {J/kg-K}
  0.9,                                    ! Thermal Absorptance
  0.7,                                    ! Solar Absorptance
  0.3;                                    ! Visible Absorptance

OS:ComponentCost:LineItem,
  {486d352a-dec8-418f-ae8e-854b6fdccbfd}, ! Handle
  90.1-2004 Nonres 6B Roof IEAD,          ! Name
  ,                                       ! Type
  Construction,                           ! Line Item Type
  90.1-2004 Nonres 6B Roof IEAD,          ! Item Name
  ,                                       ! Object End Use Key
  ,                                       ! Quantity {dimensionless}
  49.208,                                 ! Material Cost {$}
  CostPerArea;                            ! Material Cost Units

