
OS:Version,
  {77687acb-08b7-44bb-b023-4cceb226d0aa}, ! Handle
  0.9.3;                                  ! Version Identifier

OS:Construction,
  {48816f4f-7571-4493-ba52-a66056a0d8de}, ! Handle
  Title 24-2008 Nonres 8 Ext Wall Wood-Framed and Other, ! Name
  ,                                       ! Surface Rendering Name
  {b58e47e3-3d69-4a1c-9d41-af83873392a2}, ! Layer 1
  {05a33111-42f0-4a98-84c6-a9c87a55427a}, ! Layer 2
  {6501048f-f657-4070-aaa0-5ef8470a8433}; ! Layer 3

OS:Material,
  {b58e47e3-3d69-4a1c-9d41-af83873392a2}, ! Handle
  Wood Siding,                            ! Name
  MediumSmooth,                           ! Roughness
  0.01,                                   ! Thickness {m}
  0.11,                                   ! Conductivity {W/m-K}
  544.62,                                 ! Density {kg/m3}
  1210,                                   ! Specific Heat {J/kg-K}
  0.9,                                    ! Thermal Absorptance
  0.78,                                   ! Solar Absorptance
  0.78;                                   ! Visible Absorptance

OS:Material,
  {05a33111-42f0-4a98-84c6-a9c87a55427a}, ! Handle
  Wall Insulation [159],                  ! Name
  MediumRough,                            ! Roughness
  0.0812,                                 ! Thickness {m}
  0.045,                                  ! Conductivity {W/m-K}
  265,                                    ! Density {kg/m3}
  836.8,                                  ! Specific Heat {J/kg-K}
  0.9,                                    ! Thermal Absorptance
  0.7,                                    ! Solar Absorptance
  0.7;                                    ! Visible Absorptance

OS:Material,
  {6501048f-f657-4070-aaa0-5ef8470a8433}, ! Handle
  1/2IN Gypsum,                           ! Name
  Smooth,                                 ! Roughness
  0.01271,                                ! Thickness {m}
  0.16,                                   ! Conductivity {W/m-K}
  784.9,                                  ! Density {kg/m3}
  830,                                    ! Specific Heat {J/kg-K}
  0.9,                                    ! Thermal Absorptance
  0.92,                                   ! Solar Absorptance
  0.92;                                   ! Visible Absorptance

OS:ComponentCost:LineItem,
  {5d0469a8-162b-47d3-88f1-152dd6cc2bc7}, ! Handle
  Title 24-2008 Nonres 8 Ext Wall Wood-Framed and Other, ! Name
  ,                                       ! Type
  Construction,                           ! Line Item Type
  Title 24-2008 Nonres 8 Ext Wall Wood-Framed and Other, ! Item Name
  ,                                       ! Object End Use Key
  ,                                       ! Quantity {dimensionless}
  140.526,                                ! Material Cost {$}
  CostPerArea;                            ! Material Cost Units

OS:ComponentData,
  {99591858-66a3-4817-9109-dfff1c91e344}, ! Handle
  Component Data 1,                       ! Name
  {acc08a99-e56d-4f78-bf80-f26b22272f4f}, ! UUID
  {1d009a7b-3cae-4bb2-8643-0a0b31f38f48}, ! Version UUID
  1363982046,                             ! Creation Timestamp
  1363982046,                             ! Version Timestamp
  {48816f4f-7571-4493-ba52-a66056a0d8de}, ! Name of Object 1
  {b58e47e3-3d69-4a1c-9d41-af83873392a2}, ! Name of Object 2
  {05a33111-42f0-4a98-84c6-a9c87a55427a}, ! Name of Object 3
  {6501048f-f657-4070-aaa0-5ef8470a8433}, ! Name of Object 4
  {5d0469a8-162b-47d3-88f1-152dd6cc2bc7}; ! Name of Object 5

