
OS:Version,
  {4960df8b-29e0-46fb-9931-cd2a1891e8ce}, ! Handle
  0.9.3;                                  ! Version Identifier

OS:Material,
  {1f17a228-b6c8-457d-b223-7536913b0ed8}, ! Handle
  1/2IN Gypsum,                           ! Name
  Smooth,                                 ! Roughness
  0.01271,                                ! Thickness {m}
  0.16,                                   ! Conductivity {W/m-K}
  784.9,                                  ! Density {kg/m3}
  830,                                    ! Specific Heat {J/kg-K}
  0.9,                                    ! Thermal Absorptance
  0.92,                                   ! Solar Absorptance
  0.92;                                   ! Visible Absorptance

OS:Material,
  {2c1db746-8a18-4fc8-9048-c898cdb279bc}, ! Handle
  Wall Insulation [159],                  ! Name
  MediumRough,                            ! Roughness
  0.0812,                                 ! Thickness {m}
  0.045,                                  ! Conductivity {W/m-K}
  265,                                    ! Density {kg/m3}
  836.8,                                  ! Specific Heat {J/kg-K}
  0.9,                                    ! Thermal Absorptance
  0.7,                                    ! Solar Absorptance
  0.7;                                    ! Visible Absorptance

OS:Construction,
  {c86dddca-ebf5-417a-8bcf-c371a0ed9b16}, ! Handle
  Title 24-2008 Nonres 8 Ext Wall Wood-Framed and Other, ! Name
  ,                                       ! Surface Rendering Name
  {3d3db3fc-cbc1-4883-95fe-33f6dccc69cd}, ! Layer 1
  {2c1db746-8a18-4fc8-9048-c898cdb279bc}, ! Layer 2
  {1f17a228-b6c8-457d-b223-7536913b0ed8}; ! Layer 3

OS:Material,
  {3d3db3fc-cbc1-4883-95fe-33f6dccc69cd}, ! Handle
  Wood Siding,                            ! Name
  MediumSmooth,                           ! Roughness
  0.01,                                   ! Thickness {m}
  0.11,                                   ! Conductivity {W/m-K}
  544.62,                                 ! Density {kg/m3}
  1210,                                   ! Specific Heat {J/kg-K}
  0.9,                                    ! Thermal Absorptance
  0.78,                                   ! Solar Absorptance
  0.78;                                   ! Visible Absorptance

OS:ComponentCost:LineItem,
  {4cc42e10-2331-4748-bdf9-e73a2807d047}, ! Handle
  Title 24-2008 Nonres 8 Ext Wall Wood-Framed and Other, ! Name
  ,                                       ! Type
  Construction,                           ! Line Item Type
  Title 24-2008 Nonres 8 Ext Wall Wood-Framed and Other, ! Item Name
  ,                                       ! Object End Use Key
  ,                                       ! Quantity {dimensionless}
  140.526,                                ! Material Cost {$}
  CostPerArea;                            ! Material Cost Units

