
OS:Version,
  {30db11a2-1733-4a12-91d2-0b2081f29a71}, ! Handle
  0.9.3;                                  ! Version Identifier

OS:Material,
  {347cab64-1467-4ea5-a614-1ca9905d1aa6}, ! Handle
  Roof Membrane,                          ! Name
  VeryRough,                              ! Roughness
  0.0095,                                 ! Thickness {m}
  0.16,                                   ! Conductivity {W/m-K}
  1121.29,                                ! Density {kg/m3}
  1460,                                   ! Specific Heat {J/kg-K}
  0.9,                                    ! Thermal Absorptance
  0.7,                                    ! Solar Absorptance
  0.7;                                    ! Visible Absorptance

OS:Construction,
  {bc2585a6-725f-4227-a149-7df86c027b7f}, ! Handle
  90.1-2001 Nonres B2 Roof IEAD,          ! Name
  ,                                       ! Surface Rendering Name
  {347cab64-1467-4ea5-a614-1ca9905d1aa6}, ! Layer 1
  {facac8ce-6da2-470d-b092-64691d9ab045}, ! Layer 2
  {5596b2af-75d7-4395-a637-0ce1064d6631}; ! Layer 3

OS:Material,
  {facac8ce-6da2-470d-b092-64691d9ab045}, ! Handle
  Roof Insulation,                        ! Name
  MediumRough,                            ! Roughness
  0.124958,                               ! Thickness {m}
  0.049,                                  ! Conductivity {W/m-K}
  265,                                    ! Density {kg/m3}
  836.8,                                  ! Specific Heat {J/kg-K}
  0.9,                                    ! Thermal Absorptance
  0.7,                                    ! Solar Absorptance
  0.7;                                    ! Visible Absorptance

OS:Material,
  {5596b2af-75d7-4395-a637-0ce1064d6631}, ! Handle
  Metal Decking,                          ! Name
  MediumSmooth,                           ! Roughness
  0.001524,                               ! Thickness {m}
  45.006,                                 ! Conductivity {W/m-K}
  7680,                                   ! Density {kg/m3}
  418.4,                                  ! Specific Heat {J/kg-K}
  0.9,                                    ! Thermal Absorptance
  0.7,                                    ! Solar Absorptance
  0.3;                                    ! Visible Absorptance

OS:ComponentCost:LineItem,
  {cef02c29-d144-4fe9-ab99-1df32e552a19}, ! Handle
  90.1-2001 Nonres B2 Roof IEAD,          ! Name
  ,                                       ! Type
  Construction,                           ! Line Item Type
  90.1-2001 Nonres B2 Roof IEAD,          ! Item Name
  ,                                       ! Object End Use Key
  ,                                       ! Quantity {dimensionless}
  49.208,                                 ! Material Cost {$}
  CostPerArea;                            ! Material Cost Units

