
OS:Version,
  {6dea45d0-a431-46c4-8206-a59304b23232}, ! Handle
  0.9.3;                                  ! Version Identifier

OS:Construction,
  {52f86ee5-5cc6-4c67-9c62-ea273bc1afce}, ! Handle
  90.1-1999 Nonres B13 Ext Slab Unheated - 4in Slab with Carpet, ! Name
  ,                                       ! Surface Rendering Name
  {75d44b4b-444a-457b-a60a-2fe96d39690e}, ! Layer 1
  {4eeb2a30-ab24-4b73-b4a7-479af54a1b9f}; ! Layer 2

OS:Material,
  {75d44b4b-444a-457b-a60a-2fe96d39690e}, ! Handle
  MAT-CC05 4 HW CONCRETE,                 ! Name
  Rough,                                  ! Roughness
  0.1016,                                 ! Thickness {m}
  1.311,                                  ! Conductivity {W/m-K}
  2240,                                   ! Density {kg/m3}
  836.8,                                  ! Specific Heat {J/kg-K}
  0.9,                                    ! Thermal Absorptance
  0.7,                                    ! Solar Absorptance
  0.7;                                    ! Visible Absorptance

OS:Material:NoMass,
  {4eeb2a30-ab24-4b73-b4a7-479af54a1b9f}, ! Handle
  CP02 CARPET PAD,                        ! Name
  VeryRough,                              ! Roughness
  0.21648,                                ! Thermal Resistance {m2-K/W}
  0.9,                                    ! Thermal Absorptance
  0.7,                                    ! Solar Absorptance
  0.8;                                    ! Visible Absorptance

OS:ComponentCost:LineItem,
  {f73a1b47-3646-4c41-a5c9-c2491887e520}, ! Handle
  90.1-1999 Nonres B13 Ext Slab Unheated - 4in Slab with Carpet, ! Name
  ,                                       ! Type
  Construction,                           ! Line Item Type
  90.1-1999 Nonres B13 Ext Slab Unheated - 4in Slab with Carpet, ! Item Name
  ,                                       ! Object End Use Key
  ,                                       ! Quantity {dimensionless}
  45.52,                                  ! Material Cost {$}
  CostPerArea;                            ! Material Cost Units

