
OS:Version,
  {10e6baf0-0454-4a38-9a86-d03b3ea93872}, ! Handle
  0.9.3;                                  ! Version Identifier

OS:Construction,
  {ecdaa591-89f3-47df-a98e-ed7da85dd533}, ! Handle
  90.1-2007 Nonres 4B Ext Slab Unheated - 4in Slab with Carpet, ! Name
  ,                                       ! Surface Rendering Name
  {01971e1c-7444-4c9f-8b5e-98ff89136fb0}, ! Layer 1
  {32cb9968-b3c4-4489-8b4f-115c161227c9}; ! Layer 2

OS:Material,
  {01971e1c-7444-4c9f-8b5e-98ff89136fb0}, ! Handle
  MAT-CC05 4 HW CONCRETE,                 ! Name
  Rough,                                  ! Roughness
  0.1016,                                 ! Thickness {m}
  1.311,                                  ! Conductivity {W/m-K}
  2240,                                   ! Density {kg/m3}
  836.8,                                  ! Specific Heat {J/kg-K}
  0.9,                                    ! Thermal Absorptance
  0.7,                                    ! Solar Absorptance
  0.7;                                    ! Visible Absorptance

OS:Material:NoMass,
  {32cb9968-b3c4-4489-8b4f-115c161227c9}, ! Handle
  CP02 CARPET PAD,                        ! Name
  VeryRough,                              ! Roughness
  0.21648,                                ! Thermal Resistance {m2-K/W}
  0.9,                                    ! Thermal Absorptance
  0.7,                                    ! Solar Absorptance
  0.8;                                    ! Visible Absorptance

OS:ComponentCost:LineItem,
  {bcaeb46d-f5fa-42df-8710-7786b9b3c38e}, ! Handle
  90.1-2007 Nonres 4B Ext Slab Unheated - 4in Slab with Carpet, ! Name
  ,                                       ! Type
  Construction,                           ! Line Item Type
  90.1-2007 Nonres 4B Ext Slab Unheated - 4in Slab with Carpet, ! Item Name
  ,                                       ! Object End Use Key
  ,                                       ! Quantity {dimensionless}
  45.52,                                  ! Material Cost {$}
  CostPerArea;                            ! Material Cost Units

