
OS:Version,
  {fe6a1f4c-77e5-43db-bcbd-fc46bbc6d251}, ! Handle
  0.9.3;                                  ! Version Identifier

OS:Construction,
  {f0e5514a-eedd-4d77-abf6-373c8dd1b152}, ! Handle
  90.1-2007 Nonres 1A Window Nonmetal framing, ! Name
  ,                                       ! Surface Rendering Name
  {20586d7e-9321-46af-b07a-38a3395a03b7}; ! Layer 1

OS:WindowMaterial:Glazing,
  {20586d7e-9321-46af-b07a-38a3395a03b7}, ! Handle
  Theoretical Glass [167],                ! Name
  SpectralAverage,                        ! Optical Data Type
  ,                                       ! Window Glass Spectral Data Set Name
  0.003,                                  ! Thickness {m}
  0.237362,                               ! Solar Transmittance at Normal Incidence
  0.712638,                               ! Front Side Solar Reflectance at Normal Incidence
  0.712638,                               ! Back Side Solar Reflectance at Normal Incidence
  0.251212,                               ! Visible Transmittance at Normal Incidence
  0.698788,                               ! Front Side Visible Reflectance at Normal Incidence
  0.698788,                               ! Back Side Visible Reflectance at Normal Incidence
  0,                                      ! Infrared Transmittance at Normal Incidence
  0.985,                                  ! Front Side Infrared Hemispherical Emissivity
  0.985,                                  ! Back Side Infrared Hemispherical Emissivity
  2.10728;                                ! Conductivity {W/m-K}

OS:ComponentCost:LineItem,
  {8b5fc8ee-5073-4822-bd04-ca62c1ea4681}, ! Handle
  90.1-2007 Nonres 1A Window Nonmetal framing, ! Name
  ,                                       ! Type
  Construction,                           ! Line Item Type
  90.1-2007 Nonres 1A Window Nonmetal framing, ! Item Name
  ,                                       ! Object End Use Key
  ,                                       ! Quantity {dimensionless}
  534.616,                                ! Material Cost {$}
  CostPerArea;                            ! Material Cost Units

