
OS:Version,
  {8dda1b8d-4058-4059-a4e3-b20115a009c9}, ! Handle
  0.9.3;                                  ! Version Identifier

OS:Construction,
  {992af321-7823-4cdd-8bc8-0a8f5d34b6da}, ! Handle
  90.1-2007 Nonres 1A Window Nonmetal framing, ! Name
  ,                                       ! Surface Rendering Name
  {78958b49-153b-423c-a372-998991ceb57d}; ! Layer 1

OS:WindowMaterial:Glazing,
  {78958b49-153b-423c-a372-998991ceb57d}, ! Handle
  Theoretical Glass [167],                ! Name
  SpectralAverage,                        ! Optical Data Type
  ,                                       ! Window Glass Spectral Data Set Name
  0.003,                                  ! Thickness {m}
  0.237362,                               ! Solar Transmittance at Normal Incidence
  0.712638,                               ! Front Side Solar Reflectance at Normal Incidence
  0.712638,                               ! Back Side Solar Reflectance at Normal Incidence
  0.251212,                               ! Visible Transmittance at Normal Incidence
  0.698788,                               ! Front Side Visible Reflectance at Normal Incidence
  0.698788,                               ! Back Side Visible Reflectance at Normal Incidence
  0,                                      ! Infrared Transmittance at Normal Incidence
  0.985,                                  ! Front Side Infrared Hemispherical Emissivity
  0.985,                                  ! Back Side Infrared Hemispherical Emissivity
  2.10728;                                ! Conductivity {W/m-K}

OS:ComponentCost:LineItem,
  {604a5324-3cfe-46e7-b707-d73d8c8651fa}, ! Handle
  90.1-2007 Nonres 1A Window Nonmetal framing, ! Name
  ,                                       ! Type
  Construction,                           ! Line Item Type
  90.1-2007 Nonres 1A Window Nonmetal framing, ! Item Name
  ,                                       ! Object End Use Key
  ,                                       ! Quantity {dimensionless}
  534.616,                                ! Material Cost {$}
  CostPerArea;                            ! Material Cost Units

OS:ComponentData,
  {ff063cd7-070d-40d9-af9e-95753d33b06e}, ! Handle
  Component Data 1,                       ! Name
  {24c56834-6237-448f-872b-030764cca5c0}, ! UUID
  {53466e4c-d2c1-492d-98b3-06f3747d698e}, ! Version UUID
  1363981779,                             ! Creation Timestamp
  1363981779,                             ! Version Timestamp
  {992af321-7823-4cdd-8bc8-0a8f5d34b6da}, ! Name of Object 1
  {78958b49-153b-423c-a372-998991ceb57d}, ! Name of Object 2
  {604a5324-3cfe-46e7-b707-d73d8c8651fa}; ! Name of Object 3

