
OS:Version,
  {c5c38b81-7133-4d02-90dd-21728902354f}, ! Handle
  0.9.3;                                  ! Version Identifier

OS:Material,
  {472fe471-a6c2-4eff-a6d3-e991df8fb72d}, ! Handle
  GP01 1/2 GYPSUM 1,                      ! Name
  Smooth,                                 ! Roughness
  0.01271,                                ! Thickness {m}
  0.16,                                   ! Conductivity {W/m-K}
  800,                                    ! Density {kg/m3}
  1090,                                   ! Specific Heat {J/kg-K}
  0.9,                                    ! Thermal Absorptance
  0.7,                                    ! Solar Absorptance
  0.5;                                    ! Visible Absorptance

OS:ComponentCost:LineItem,
  {3425ce09-614b-4800-a22e-aa58a8fc389d}, ! Handle
  90.1-1999 Nonres B11 Int Wall,          ! Name
  ,                                       ! Type
  Construction,                           ! Line Item Type
  90.1-1999 Nonres B11 Int Wall,          ! Item Name
  ,                                       ! Object End Use Key
  ,                                       ! Quantity {dimensionless}
  0,                                      ! Material Cost {$}
  CostPerArea;                            ! Material Cost Units

OS:Construction,
  {0252348d-cf16-46c3-9c28-55924eaa3b7b}, ! Handle
  90.1-1999 Nonres B11 Int Wall,          ! Name
  ,                                       ! Surface Rendering Name
  {e4fc37fa-00f5-45b0-9d44-4ba11db404ac}, ! Layer 1
  {e4fc37fa-00f5-45b0-9d44-4ba11db404ac}; ! Layer 2

OS:Material,
  {e4fc37fa-00f5-45b0-9d44-4ba11db404ac}, ! Handle
  GP01 1/2 GYPSUM,                        ! Name
  Smooth,                                 ! Roughness
  0.01271,                                ! Thickness {m}
  0.16,                                   ! Conductivity {W/m-K}
  800,                                    ! Density {kg/m3}
  1090,                                   ! Specific Heat {J/kg-K}
  0.9,                                    ! Thermal Absorptance
  0.7,                                    ! Solar Absorptance
  0.5;                                    ! Visible Absorptance

