
OS:Version,
  {50d3f14e-38d8-470b-adbe-fb99163dd9ce}, ! Handle
  0.9.3;                                  ! Version Identifier

OS:Construction,
  {5d5cd3d3-b01b-41df-831a-4b52e3be87a6}, ! Handle
  90.1-2001 Res B11 Roof Metal Building,  ! Name
  ,                                       ! Surface Rendering Name
  {66d7bc04-b912-4c1e-a870-284886cb185e}, ! Layer 1
  {cdcbfafb-107b-409a-ada3-a7d91d96ea6a}; ! Layer 2

OS:Material,
  {66d7bc04-b912-4c1e-a870-284886cb185e}, ! Handle
  Metal Roofing,                          ! Name
  MediumSmooth,                           ! Roughness
  0.001524,                               ! Thickness {m}
  45.006,                                 ! Conductivity {W/m-K}
  7680,                                   ! Density {kg/m3}
  418.4,                                  ! Specific Heat {J/kg-K}
  0.9,                                    ! Thermal Absorptance
  0.7,                                    ! Solar Absorptance
  0.3;                                    ! Visible Absorptance

OS:Material,
  {cdcbfafb-107b-409a-ada3-a7d91d96ea6a}, ! Handle
  Roof Insulation [1],                    ! Name
  MediumRough,                            ! Roughness
  0.123533,                               ! Thickness {m}
  0.049,                                  ! Conductivity {W/m-K}
  265,                                    ! Density {kg/m3}
  836.8,                                  ! Specific Heat {J/kg-K}
  0.9,                                    ! Thermal Absorptance
  0.7,                                    ! Solar Absorptance
  0.7;                                    ! Visible Absorptance

OS:ComponentCost:LineItem,
  {4078897e-b9a3-4832-996d-1d59f69ae904}, ! Handle
  90.1-2001 Res B11 Roof Metal Building,  ! Name
  ,                                       ! Type
  Construction,                           ! Line Item Type
  90.1-2001 Res B11 Roof Metal Building,  ! Item Name
  ,                                       ! Object End Use Key
  ,                                       ! Quantity {dimensionless}
  38.206,                                 ! Material Cost {$}
  CostPerArea;                            ! Material Cost Units

OS:ComponentData,
  {1746298a-d577-4503-ada2-780b939df88d}, ! Handle
  Component Data 1,                       ! Name
  {b17faf04-639b-4730-98c7-0dc9f4b40929}, ! UUID
  {c1b4d5fd-d9d0-4741-89cf-48f621afaab6}, ! Version UUID
  1363981508,                             ! Creation Timestamp
  1363981508,                             ! Version Timestamp
  {5d5cd3d3-b01b-41df-831a-4b52e3be87a6}, ! Name of Object 1
  {66d7bc04-b912-4c1e-a870-284886cb185e}, ! Name of Object 2
  {cdcbfafb-107b-409a-ada3-a7d91d96ea6a}, ! Name of Object 3
  {4078897e-b9a3-4832-996d-1d59f69ae904}; ! Name of Object 4

