
OS:Version,
  {cfa2c5de-a999-482e-8d1d-f759806005d5}, ! Handle
  0.9.3;                                  ! Version Identifier

OS:Material,
  {391ab933-b52e-45c8-9265-bf2a0c2b9774}, ! Handle
  Roof Insulation [1],                    ! Name
  MediumRough,                            ! Roughness
  0.123533,                               ! Thickness {m}
  0.049,                                  ! Conductivity {W/m-K}
  265,                                    ! Density {kg/m3}
  836.8,                                  ! Specific Heat {J/kg-K}
  0.9,                                    ! Thermal Absorptance
  0.7,                                    ! Solar Absorptance
  0.7;                                    ! Visible Absorptance

OS:Construction,
  {0eb8dddc-3183-4172-b3df-30f16261df8a}, ! Handle
  90.1-2001 Res B11 Roof Metal Building,  ! Name
  ,                                       ! Surface Rendering Name
  {5c366bec-a3bb-43cd-8636-11171f9931b9}, ! Layer 1
  {391ab933-b52e-45c8-9265-bf2a0c2b9774}; ! Layer 2

OS:Material,
  {5c366bec-a3bb-43cd-8636-11171f9931b9}, ! Handle
  Metal Roofing,                          ! Name
  MediumSmooth,                           ! Roughness
  0.001524,                               ! Thickness {m}
  45.006,                                 ! Conductivity {W/m-K}
  7680,                                   ! Density {kg/m3}
  418.4,                                  ! Specific Heat {J/kg-K}
  0.9,                                    ! Thermal Absorptance
  0.7,                                    ! Solar Absorptance
  0.3;                                    ! Visible Absorptance

OS:ComponentCost:LineItem,
  {69c3b1d7-e2ee-4271-9d8a-e26e1d8425a1}, ! Handle
  90.1-2001 Res B11 Roof Metal Building,  ! Name
  ,                                       ! Type
  Construction,                           ! Line Item Type
  90.1-2001 Res B11 Roof Metal Building,  ! Item Name
  ,                                       ! Object End Use Key
  ,                                       ! Quantity {dimensionless}
  38.206,                                 ! Material Cost {$}
  CostPerArea;                            ! Material Cost Units

