
OS:Version,
  {9365a9d3-3784-4095-98c3-ed23758ae542}, ! Handle
  0.9.3;                                  ! Version Identifier

OS:ComponentCost:LineItem,
  {e1634d47-1484-4318-a82e-655c318507cd}, ! Handle
  Title 24-2008 Nonres 4 Skylight without Curb, ! Name
  ,                                       ! Type
  Construction,                           ! Line Item Type
  Title 24-2008 Nonres 4 Skylight without Curb, ! Item Name
  ,                                       ! Object End Use Key
  ,                                       ! Quantity {dimensionless}
  511.59,                                 ! Material Cost {$}
  CostPerArea;                            ! Material Cost Units

OS:Construction,
  {b70da639-e92f-44ad-8457-2e27403ed12c}, ! Handle
  Title 24-2008 Nonres 4 Skylight without Curb, ! Name
  ,                                       ! Surface Rendering Name
  {826681da-193f-4f28-9cbd-8475074043d9}; ! Layer 1

OS:WindowMaterial:Glazing,
  {826681da-193f-4f28-9cbd-8475074043d9}, ! Handle
  Theoretical Glass [681],                ! Name
  SpectralAverage,                        ! Optical Data Type
  ,                                       ! Window Glass Spectral Data Set Name
  0.003,                                  ! Thickness {m}
  0.390498,                               ! Solar Transmittance at Normal Incidence
  0.559502,                               ! Front Side Solar Reflectance at Normal Incidence
  0.559502,                               ! Back Side Solar Reflectance at Normal Incidence
  0.400004,                               ! Visible Transmittance at Normal Incidence
  0.549996,                               ! Front Side Visible Reflectance at Normal Incidence
  0.549996,                               ! Back Side Visible Reflectance at Normal Incidence
  0,                                      ! Infrared Transmittance at Normal Incidence
  0.9,                                    ! Front Side Infrared Hemispherical Emissivity
  0.9,                                    ! Back Side Infrared Hemispherical Emissivity
  0.0498596;                              ! Conductivity {W/m-K}

