
OS:Version,
  {04d98043-1542-4c10-870b-ec97d133feae}, ! Handle
  0.9.3;                                  ! Version Identifier

OS:Construction,
  {40f3b41f-4954-44fb-ac75-415352ef4e5a}, ! Handle
  90.1-1999 Res B14 Int Wall,             ! Name
  ,                                       ! Surface Rendering Name
  {83089409-5c79-426c-a405-b55bbc7ce049}, ! Layer 1
  {83089409-5c79-426c-a405-b55bbc7ce049}; ! Layer 2

OS:Material,
  {83089409-5c79-426c-a405-b55bbc7ce049}, ! Handle
  GP01 1/2 GYPSUM,                        ! Name
  Smooth,                                 ! Roughness
  0.01271,                                ! Thickness {m}
  0.16,                                   ! Conductivity {W/m-K}
  800,                                    ! Density {kg/m3}
  1090,                                   ! Specific Heat {J/kg-K}
  0.9,                                    ! Thermal Absorptance
  0.7,                                    ! Solar Absorptance
  0.5;                                    ! Visible Absorptance

OS:Material,
  {98f75665-f047-4402-bf73-d4f3641e0e2e}, ! Handle
  GP01 1/2 GYPSUM 1,                      ! Name
  Smooth,                                 ! Roughness
  0.01271,                                ! Thickness {m}
  0.16,                                   ! Conductivity {W/m-K}
  800,                                    ! Density {kg/m3}
  1090,                                   ! Specific Heat {J/kg-K}
  0.9,                                    ! Thermal Absorptance
  0.7,                                    ! Solar Absorptance
  0.5;                                    ! Visible Absorptance

OS:ComponentCost:LineItem,
  {0d00bbb3-2e89-48fe-af65-8f8944c25639}, ! Handle
  90.1-1999 Res B14 Int Wall,             ! Name
  ,                                       ! Type
  Construction,                           ! Line Item Type
  90.1-1999 Res B14 Int Wall,             ! Item Name
  ,                                       ! Object End Use Key
  ,                                       ! Quantity {dimensionless}
  0,                                      ! Material Cost {$}
  CostPerArea;                            ! Material Cost Units

