
OS:Version,
  {e7a5334e-1af1-4fd5-8c90-4e7c86001c0d}, ! Handle
  0.9.3;                                  ! Version Identifier

OS:Construction,
  {6b3947b6-c2f7-4924-94ed-7700ff42d845}, ! Handle
  90.1-2001 Res B25 Ext Wall Wood-Framed and Other, ! Name
  ,                                       ! Surface Rendering Name
  {680ed61f-9d53-4759-a972-fdcfb139b0eb}, ! Layer 1
  {33a69039-047a-48e8-a120-14de0afcff65}, ! Layer 2
  {5c70e491-5b72-44be-beb0-11879040fd4c}; ! Layer 3

OS:Material,
  {680ed61f-9d53-4759-a972-fdcfb139b0eb}, ! Handle
  Wood Siding,                            ! Name
  MediumSmooth,                           ! Roughness
  0.01,                                   ! Thickness {m}
  0.11,                                   ! Conductivity {W/m-K}
  544.62,                                 ! Density {kg/m3}
  1210,                                   ! Specific Heat {J/kg-K}
  0.9,                                    ! Thermal Absorptance
  0.78,                                   ! Solar Absorptance
  0.78;                                   ! Visible Absorptance

OS:Material,
  {33a69039-047a-48e8-a120-14de0afcff65}, ! Handle
  Wall Insulation [13],                   ! Name
  MediumRough,                            ! Roughness
  0.140713,                               ! Thickness {m}
  0.045,                                  ! Conductivity {W/m-K}
  265,                                    ! Density {kg/m3}
  836.8,                                  ! Specific Heat {J/kg-K}
  0.9,                                    ! Thermal Absorptance
  0.7,                                    ! Solar Absorptance
  0.7;                                    ! Visible Absorptance

OS:Material,
  {5c70e491-5b72-44be-beb0-11879040fd4c}, ! Handle
  1/2IN Gypsum,                           ! Name
  Smooth,                                 ! Roughness
  0.01271,                                ! Thickness {m}
  0.16,                                   ! Conductivity {W/m-K}
  784.9,                                  ! Density {kg/m3}
  830,                                    ! Specific Heat {J/kg-K}
  0.9,                                    ! Thermal Absorptance
  0.92,                                   ! Solar Absorptance
  0.92;                                   ! Visible Absorptance

OS:ComponentCost:LineItem,
  {2f778980-6025-4315-99a1-6cde7a33c988}, ! Handle
  90.1-2001 Res B25 Ext Wall Wood-Framed and Other, ! Name
  ,                                       ! Type
  Construction,                           ! Line Item Type
  90.1-2001 Res B25 Ext Wall Wood-Framed and Other, ! Item Name
  ,                                       ! Object End Use Key
  ,                                       ! Quantity {dimensionless}
  80.638,                                 ! Material Cost {$}
  CostPerArea;                            ! Material Cost Units

