
OS:Version,
  {3226f2fb-6b79-4b5d-a304-d1b9df3b3091}, ! Handle
  0.9.3;                                  ! Version Identifier

OS:Construction,
  {6fae8b18-24b3-46b0-888f-4ed605616a7b}, ! Handle
  90.1-2001 Nonres B13 Ext Slab Unheated - 4in Slab without Carpet, ! Name
  ,                                       ! Surface Rendering Name
  {4e2b3fdd-e29c-4c0e-b69d-09b8570d6e7f}; ! Layer 1

OS:Material,
  {4e2b3fdd-e29c-4c0e-b69d-09b8570d6e7f}, ! Handle
  MAT-CC05 4 HW CONCRETE,                 ! Name
  Rough,                                  ! Roughness
  0.1016,                                 ! Thickness {m}
  1.311,                                  ! Conductivity {W/m-K}
  2240,                                   ! Density {kg/m3}
  836.8,                                  ! Specific Heat {J/kg-K}
  0.9,                                    ! Thermal Absorptance
  0.7,                                    ! Solar Absorptance
  0.7;                                    ! Visible Absorptance

OS:ComponentCost:LineItem,
  {c5d8da16-5b85-476b-ac0e-ef41535db0e7}, ! Handle
  90.1-2001 Nonres B13 Ext Slab Unheated - 4in Slab without Carpet, ! Name
  ,                                       ! Type
  Construction,                           ! Line Item Type
  90.1-2001 Nonres B13 Ext Slab Unheated - 4in Slab without Carpet, ! Item Name
  ,                                       ! Object End Use Key
  ,                                       ! Quantity {dimensionless}
  45.52,                                  ! Material Cost {$}
  CostPerArea;                            ! Material Cost Units

