
OS:Version,
  {5245b65a-b15d-41d1-b9a6-3eb29347fa0c}, ! Handle
  0.9.3;                                  ! Version Identifier

OS:Material,
  {af049e6d-ad63-487b-85d2-7d6838b51703}, ! Handle
  MAT-CC05 8 HW CONCRETE,                 ! Name
  Rough,                                  ! Roughness
  0.20321,                                ! Thickness {m}
  1.311,                                  ! Conductivity {W/m-K}
  2240,                                   ! Density {kg/m3}
  836.8,                                  ! Specific Heat {J/kg-K}
  0.9,                                    ! Thermal Absorptance
  0.7,                                    ! Solar Absorptance
  0.7;                                    ! Visible Absorptance

OS:Material:NoMass,
  {70016055-2756-46ac-b86b-536de128518b}, ! Handle
  CP02 CARPET PAD,                        ! Name
  VeryRough,                              ! Roughness
  0.21648,                                ! Thermal Resistance {m2-K/W}
  0.9,                                    ! Thermal Absorptance
  0.7,                                    ! Solar Absorptance
  0.8;                                    ! Visible Absorptance

OS:ComponentCost:LineItem,
  {0fc115a6-7248-42b7-ba06-18c1f96f8097}, ! Handle
  AEDG SHC Nonres 1A Ext Slab Unheated - 8in Slab with Carpet, ! Name
  ,                                       ! Type
  Construction,                           ! Line Item Type
  AEDG SHC Nonres 1A Ext Slab Unheated - 8in Slab with Carpet, ! Item Name
  ,                                       ! Object End Use Key
  ,                                       ! Quantity {dimensionless}
  0,                                      ! Material Cost {$}
  CostPerArea;                            ! Material Cost Units

OS:Construction,
  {247cfc87-92aa-44b2-8375-ea236ebf9517}, ! Handle
  AEDG SHC Nonres 1A Ext Slab Unheated - 8in Slab with Carpet, ! Name
  ,                                       ! Surface Rendering Name
  {af049e6d-ad63-487b-85d2-7d6838b51703}, ! Layer 1
  {70016055-2756-46ac-b86b-536de128518b}; ! Layer 2

