
OS:Version,
  {267c4237-a9b1-45ad-9ef4-4d605b510330}, ! Handle
  0.9.3;                                  ! Version Identifier

OS:Construction,
  {c2fe0910-147d-4c3e-a128-6490bef70266}, ! Handle
  AEDG SHC Nonres 1A Ext Slab Unheated - 8in Slab with Carpet, ! Name
  ,                                       ! Surface Rendering Name
  {e2193a5d-4faa-4713-8b22-acdd12c41e81}, ! Layer 1
  {95665cbf-5839-46ab-b469-659beef7ebb2}; ! Layer 2

OS:Material,
  {e2193a5d-4faa-4713-8b22-acdd12c41e81}, ! Handle
  MAT-CC05 8 HW CONCRETE,                 ! Name
  Rough,                                  ! Roughness
  0.20321,                                ! Thickness {m}
  1.311,                                  ! Conductivity {W/m-K}
  2240,                                   ! Density {kg/m3}
  836.8,                                  ! Specific Heat {J/kg-K}
  0.9,                                    ! Thermal Absorptance
  0.7,                                    ! Solar Absorptance
  0.7;                                    ! Visible Absorptance

OS:Material:NoMass,
  {95665cbf-5839-46ab-b469-659beef7ebb2}, ! Handle
  CP02 CARPET PAD,                        ! Name
  VeryRough,                              ! Roughness
  0.21648,                                ! Thermal Resistance {m2-K/W}
  0.9,                                    ! Thermal Absorptance
  0.7,                                    ! Solar Absorptance
  0.8;                                    ! Visible Absorptance

OS:ComponentCost:LineItem,
  {1473f0d1-42c6-48e2-8490-6ddf6d43cd53}, ! Handle
  AEDG SHC Nonres 1A Ext Slab Unheated - 8in Slab with Carpet, ! Name
  ,                                       ! Type
  Construction,                           ! Line Item Type
  AEDG SHC Nonres 1A Ext Slab Unheated - 8in Slab with Carpet, ! Item Name
  ,                                       ! Object End Use Key
  ,                                       ! Quantity {dimensionless}
  0,                                      ! Material Cost {$}
  CostPerArea;                            ! Material Cost Units

OS:ComponentData,
  {31151767-3d15-494f-99cd-42848bceced6}, ! Handle
  Component Data 1,                       ! Name
  {68aa583e-bc92-44d2-be9b-29c0a9aff691}, ! UUID
  {09f64c93-2ac6-47c3-8ab8-df6f4c109a9c}, ! Version UUID
  1363981909,                             ! Creation Timestamp
  1363981909,                             ! Version Timestamp
  {c2fe0910-147d-4c3e-a128-6490bef70266}, ! Name of Object 1
  {e2193a5d-4faa-4713-8b22-acdd12c41e81}, ! Name of Object 2
  {95665cbf-5839-46ab-b469-659beef7ebb2}, ! Name of Object 3
  {1473f0d1-42c6-48e2-8490-6ddf6d43cd53}; ! Name of Object 4

