
OS:Version,
  {eb763f60-7c4c-4c7e-870f-6686f0a9df8e}, ! Handle
  0.9.3;                                  ! Version Identifier

OS:ComponentCost:LineItem,
  {c843f8d8-c7b0-4e27-bcd0-a512e9a21797}, ! Handle
  189.1-2009 Nonres 5B Window Metal framing entrance door, ! Name
  ,                                       ! Type
  Construction,                           ! Line Item Type
  189.1-2009 Nonres 5B Window Metal framing entrance door, ! Item Name
  ,                                       ! Object End Use Key
  ,                                       ! Quantity {dimensionless}
  573.89,                                 ! Material Cost {$}
  CostPerArea;                            ! Material Cost Units

OS:WindowMaterial:Glazing,
  {a8d16d67-c4b6-41e1-ad5e-f7ac291a95d4}, ! Handle
  Theoretical Glass [211],                ! Name
  SpectralAverage,                        ! Optical Data Type
  ,                                       ! Window Glass Spectral Data Set Name
  0.003,                                  ! Thickness {m}
  0.333574,                               ! Solar Transmittance at Normal Incidence
  0.616426,                               ! Front Side Solar Reflectance at Normal Incidence
  0.616426,                               ! Back Side Solar Reflectance at Normal Incidence
  0.439975,                               ! Visible Transmittance at Normal Incidence
  0.510025,                               ! Front Side Visible Reflectance at Normal Incidence
  0.510025,                               ! Back Side Visible Reflectance at Normal Incidence
  0,                                      ! Infrared Transmittance at Normal Incidence
  0.9,                                    ! Front Side Infrared Hemispherical Emissivity
  0.9,                                    ! Back Side Infrared Hemispherical Emissivity
  0.0336861;                              ! Conductivity {W/m-K}

OS:Construction,
  {59f8012f-c135-4547-a681-76e3fe9080b3}, ! Handle
  189.1-2009 Nonres 5B Window Metal framing entrance door, ! Name
  ,                                       ! Surface Rendering Name
  {a8d16d67-c4b6-41e1-ad5e-f7ac291a95d4}; ! Layer 1

