
OS:Version,
  {64e21d4e-e924-4970-95d2-640c7e8d6a9b}, ! Handle
  0.9.3;                                  ! Version Identifier

OS:Construction,
  {8b973c3c-6875-4f30-b993-dabfe0d4fb35}, ! Handle
  189.1-2009 Nonres 5B Window Metal framing entrance door, ! Name
  ,                                       ! Surface Rendering Name
  {2debe011-07ed-4ffc-a2e0-bc6b32370cc0}; ! Layer 1

OS:WindowMaterial:Glazing,
  {2debe011-07ed-4ffc-a2e0-bc6b32370cc0}, ! Handle
  Theoretical Glass [211],                ! Name
  SpectralAverage,                        ! Optical Data Type
  ,                                       ! Window Glass Spectral Data Set Name
  0.003,                                  ! Thickness {m}
  0.333574,                               ! Solar Transmittance at Normal Incidence
  0.616426,                               ! Front Side Solar Reflectance at Normal Incidence
  0.616426,                               ! Back Side Solar Reflectance at Normal Incidence
  0.439975,                               ! Visible Transmittance at Normal Incidence
  0.510025,                               ! Front Side Visible Reflectance at Normal Incidence
  0.510025,                               ! Back Side Visible Reflectance at Normal Incidence
  0,                                      ! Infrared Transmittance at Normal Incidence
  0.9,                                    ! Front Side Infrared Hemispherical Emissivity
  0.9,                                    ! Back Side Infrared Hemispherical Emissivity
  0.0336861;                              ! Conductivity {W/m-K}

OS:ComponentCost:LineItem,
  {a7b0838c-cd82-414b-84e9-106a5554dfca}, ! Handle
  189.1-2009 Nonres 5B Window Metal framing entrance door, ! Name
  ,                                       ! Type
  Construction,                           ! Line Item Type
  189.1-2009 Nonres 5B Window Metal framing entrance door, ! Item Name
  ,                                       ! Object End Use Key
  ,                                       ! Quantity {dimensionless}
  573.89,                                 ! Material Cost {$}
  CostPerArea;                            ! Material Cost Units

OS:ComponentData,
  {04285ad9-478a-430e-aa70-9b25aff333c9}, ! Handle
  Component Data 1,                       ! Name
  {5d9a8189-083e-45e4-919b-6a2a72d48133}, ! UUID
  {7b293c0a-35a7-47e0-b854-e90a9114de76}, ! Version UUID
  1363980945,                             ! Creation Timestamp
  1363980945,                             ! Version Timestamp
  {8b973c3c-6875-4f30-b993-dabfe0d4fb35}, ! Name of Object 1
  {2debe011-07ed-4ffc-a2e0-bc6b32370cc0}, ! Name of Object 2
  {a7b0838c-cd82-414b-84e9-106a5554dfca}; ! Name of Object 3

