
OS:Version,
  {a763f16b-a64f-4b0f-a74d-f121a4984990}, ! Handle
  0.9.3;                                  ! Version Identifier

OS:WindowMaterial:Glazing,
  {8a20b758-9687-4181-adab-6b1f0291c89d}, ! Handle
  Theoretical Glass [45],                 ! Name
  SpectralAverage,                        ! Optical Data Type
  ,                                       ! Window Glass Spectral Data Set Name
  0.003,                                  ! Thickness {m}
  0.482092,                               ! Solar Transmittance at Normal Incidence
  0.467908,                               ! Front Side Solar Reflectance at Normal Incidence
  0.467908,                               ! Back Side Solar Reflectance at Normal Incidence
  0.529698,                               ! Visible Transmittance at Normal Incidence
  0.420302,                               ! Front Side Visible Reflectance at Normal Incidence
  0.420302,                               ! Back Side Visible Reflectance at Normal Incidence
  0,                                      ! Infrared Transmittance at Normal Incidence
  0.9,                                    ! Front Side Infrared Hemispherical Emissivity
  0.9,                                    ! Back Side Infrared Hemispherical Emissivity
  0.0205762;                              ! Conductivity {W/m-K}

OS:Construction,
  {64f340cf-3b73-4ff9-9fa7-43e5f6016650}, ! Handle
  90.1-1999 Nonres B23 Skylight without Curb, ! Name
  ,                                       ! Surface Rendering Name
  {8a20b758-9687-4181-adab-6b1f0291c89d}; ! Layer 1

OS:ComponentCost:LineItem,
  {beb5a2ad-2024-43c7-8968-54179cebb741}, ! Handle
  90.1-1999 Nonres B23 Skylight without Curb, ! Name
  ,                                       ! Type
  Construction,                           ! Line Item Type
  90.1-1999 Nonres B23 Skylight without Curb, ! Item Name
  ,                                       ! Object End Use Key
  ,                                       ! Quantity {dimensionless}
  524.932,                                ! Material Cost {$}
  CostPerArea;                            ! Material Cost Units

