
OS:Version,
  {4e54187d-16b5-4ff5-908d-9864fa739e15}, ! Handle
  0.9.3;                                  ! Version Identifier

OS:Material,
  {6700a2b9-165f-4777-b9ba-6be97715acd8}, ! Handle
  MAT-CC05 8 HW CONCRETE,                 ! Name
  Rough,                                  ! Roughness
  0.20321,                                ! Thickness {m}
  1.311,                                  ! Conductivity {W/m-K}
  2240,                                   ! Density {kg/m3}
  836.8,                                  ! Specific Heat {J/kg-K}
  0.9,                                    ! Thermal Absorptance
  0.7,                                    ! Solar Absorptance
  0.7;                                    ! Visible Absorptance

OS:Construction,
  {c83bd96a-cf36-4e83-8b5b-6308a47ebda0}, ! Handle
  90.1-2001 Res B3 Ext Slab Unheated - 8in Slab without Carpet, ! Name
  ,                                       ! Surface Rendering Name
  {6700a2b9-165f-4777-b9ba-6be97715acd8}; ! Layer 1

OS:ComponentCost:LineItem,
  {550a271d-6e89-4acf-9317-b2ae01bfe09e}, ! Handle
  90.1-2001 Res B3 Ext Slab Unheated - 8in Slab without Carpet, ! Name
  ,                                       ! Type
  Construction,                           ! Line Item Type
  90.1-2001 Res B3 Ext Slab Unheated - 8in Slab without Carpet, ! Item Name
  ,                                       ! Object End Use Key
  ,                                       ! Quantity {dimensionless}
  45.52,                                  ! Material Cost {$}
  CostPerArea;                            ! Material Cost Units

