
OS:Version,
  {29f5249d-b4a9-4f50-88c9-912c26797b71}, ! Handle
  0.9.3;                                  ! Version Identifier

OS:Construction,
  {b74783cb-600d-4de2-b09b-60d0c986bd35}, ! Handle
  90.1-2001 Nonres B7 Ext Slab Unheated - 8in Slab with Carpet, ! Name
  ,                                       ! Surface Rendering Name
  {0b890765-6869-4a06-8884-54992da9725b}, ! Layer 1
  {f90d6fd9-1e15-441e-a24d-208ad42f0cfa}; ! Layer 2

OS:Material,
  {0b890765-6869-4a06-8884-54992da9725b}, ! Handle
  MAT-CC05 8 HW CONCRETE,                 ! Name
  Rough,                                  ! Roughness
  0.20321,                                ! Thickness {m}
  1.311,                                  ! Conductivity {W/m-K}
  2240,                                   ! Density {kg/m3}
  836.8,                                  ! Specific Heat {J/kg-K}
  0.9,                                    ! Thermal Absorptance
  0.7,                                    ! Solar Absorptance
  0.7;                                    ! Visible Absorptance

OS:Material:NoMass,
  {f90d6fd9-1e15-441e-a24d-208ad42f0cfa}, ! Handle
  CP02 CARPET PAD,                        ! Name
  VeryRough,                              ! Roughness
  0.21648,                                ! Thermal Resistance {m2-K/W}
  0.9,                                    ! Thermal Absorptance
  0.7,                                    ! Solar Absorptance
  0.8;                                    ! Visible Absorptance

OS:ComponentCost:LineItem,
  {2d19def4-9987-4680-a12e-a6fb2ce24ba2}, ! Handle
  90.1-2001 Nonres B7 Ext Slab Unheated - 8in Slab with Carpet, ! Name
  ,                                       ! Type
  Construction,                           ! Line Item Type
  90.1-2001 Nonres B7 Ext Slab Unheated - 8in Slab with Carpet, ! Item Name
  ,                                       ! Object End Use Key
  ,                                       ! Quantity {dimensionless}
  45.52,                                  ! Material Cost {$}
  CostPerArea;                            ! Material Cost Units

