
OS:Version,
  {10358a1d-1d83-4f1d-92dd-099fd396ec22}, ! Handle
  0.9.3;                                  ! Version Identifier

OS:Material,
  {b6164097-5e52-4cc8-81be-1dd85dc59f56}, ! Handle
  MAT-CC05 4 HW CONCRETE,                 ! Name
  Rough,                                  ! Roughness
  0.1016,                                 ! Thickness {m}
  1.311,                                  ! Conductivity {W/m-K}
  2240,                                   ! Density {kg/m3}
  836.8,                                  ! Specific Heat {J/kg-K}
  0.9,                                    ! Thermal Absorptance
  0.7,                                    ! Solar Absorptance
  0.7;                                    ! Visible Absorptance

OS:ComponentCost:LineItem,
  {825c614d-a389-48dd-90d0-af257c488320}, ! Handle
  Title 24-2008 Nonres 11 Ext Slab Unheated - 4in Slab without Carpet, ! Name
  ,                                       ! Type
  Construction,                           ! Line Item Type
  Title 24-2008 Nonres 11 Ext Slab Unheated - 4in Slab without Carpet, ! Item Name
  ,                                       ! Object End Use Key
  ,                                       ! Quantity {dimensionless}
  45.52,                                  ! Material Cost {$}
  CostPerArea;                            ! Material Cost Units

OS:Construction,
  {7c5320f1-72f9-43f2-8994-b0cd292a8b6a}, ! Handle
  Title 24-2008 Nonres 11 Ext Slab Unheated - 4in Slab without Carpet, ! Name
  ,                                       ! Surface Rendering Name
  {b6164097-5e52-4cc8-81be-1dd85dc59f56}; ! Layer 1

