
OS:Version,
  {821796a1-a94a-43df-8639-3387100d4614}, ! Handle
  0.9.3;                                  ! Version Identifier

OS:ComponentCost:LineItem,
  {504f1189-c705-40eb-b760-995ac6a87d3a}, ! Handle
  90.1-2001 Nonres B23 Roof IEAD,         ! Name
  ,                                       ! Type
  Construction,                           ! Line Item Type
  90.1-2001 Nonres B23 Roof IEAD,         ! Item Name
  ,                                       ! Object End Use Key
  ,                                       ! Quantity {dimensionless}
  49.208,                                 ! Material Cost {$}
  CostPerArea;                            ! Material Cost Units

OS:Construction,
  {480470e0-4da0-4a09-b7df-94075e27ed6c}, ! Handle
  90.1-2001 Nonres B23 Roof IEAD,         ! Name
  ,                                       ! Surface Rendering Name
  {104ec8fd-39bc-4fe4-ad67-f360fb95631a}, ! Layer 1
  {d6fb49b1-0e7e-4cd3-a2c7-025d301430a3}, ! Layer 2
  {ac05ea55-0037-41f8-89c2-9edcaa5ab63f}; ! Layer 3

OS:Material,
  {104ec8fd-39bc-4fe4-ad67-f360fb95631a}, ! Handle
  Roof Membrane,                          ! Name
  VeryRough,                              ! Roughness
  0.0095,                                 ! Thickness {m}
  0.16,                                   ! Conductivity {W/m-K}
  1121.29,                                ! Density {kg/m3}
  1460,                                   ! Specific Heat {J/kg-K}
  0.9,                                    ! Thermal Absorptance
  0.7,                                    ! Solar Absorptance
  0.7;                                    ! Visible Absorptance

OS:Material,
  {d6fb49b1-0e7e-4cd3-a2c7-025d301430a3}, ! Handle
  Roof Insulation,                        ! Name
  MediumRough,                            ! Roughness
  0.124958,                               ! Thickness {m}
  0.049,                                  ! Conductivity {W/m-K}
  265,                                    ! Density {kg/m3}
  836.8,                                  ! Specific Heat {J/kg-K}
  0.9,                                    ! Thermal Absorptance
  0.7,                                    ! Solar Absorptance
  0.7;                                    ! Visible Absorptance

OS:Material,
  {ac05ea55-0037-41f8-89c2-9edcaa5ab63f}, ! Handle
  Metal Decking,                          ! Name
  MediumSmooth,                           ! Roughness
  0.001524,                               ! Thickness {m}
  45.006,                                 ! Conductivity {W/m-K}
  7680,                                   ! Density {kg/m3}
  418.4,                                  ! Specific Heat {J/kg-K}
  0.9,                                    ! Thermal Absorptance
  0.7,                                    ! Solar Absorptance
  0.3;                                    ! Visible Absorptance

