
OS:Version,
  {01c2ff94-289c-46f2-8fc9-d5b37ead4007}, ! Handle
  0.9.3;                                  ! Version Identifier

OS:Material,
  {ad9dc0f8-3e52-405f-8abb-dee692578568}, ! Handle
  Metal Roofing,                          ! Name
  MediumSmooth,                           ! Roughness
  0.001524,                               ! Thickness {m}
  45.006,                                 ! Conductivity {W/m-K}
  7680,                                   ! Density {kg/m3}
  418.4,                                  ! Specific Heat {J/kg-K}
  0.9,                                    ! Thermal Absorptance
  0.7,                                    ! Solar Absorptance
  0.3;                                    ! Visible Absorptance

OS:Construction,
  {3ebfe4e9-09b2-484c-b1e4-811784c08d7c}, ! Handle
  90.1-2001 Nonres B8 Roof Metal Building, ! Name
  ,                                       ! Surface Rendering Name
  {ad9dc0f8-3e52-405f-8abb-dee692578568}, ! Layer 1
  {fc68e253-0f3f-413e-8ad3-bbcb9a41dae9}; ! Layer 2

OS:Material,
  {fc68e253-0f3f-413e-8ad3-bbcb9a41dae9}, ! Handle
  Roof Insulation [1],                    ! Name
  MediumRough,                            ! Roughness
  0.123533,                               ! Thickness {m}
  0.049,                                  ! Conductivity {W/m-K}
  265,                                    ! Density {kg/m3}
  836.8,                                  ! Specific Heat {J/kg-K}
  0.9,                                    ! Thermal Absorptance
  0.7,                                    ! Solar Absorptance
  0.7;                                    ! Visible Absorptance

OS:ComponentCost:LineItem,
  {74b8d6fb-9603-49f3-b3e6-6dc8b1ef8c9a}, ! Handle
  90.1-2001 Nonres B8 Roof Metal Building, ! Name
  ,                                       ! Type
  Construction,                           ! Line Item Type
  90.1-2001 Nonres B8 Roof Metal Building, ! Item Name
  ,                                       ! Object End Use Key
  ,                                       ! Quantity {dimensionless}
  38.206,                                 ! Material Cost {$}
  CostPerArea;                            ! Material Cost Units

