
OS:Version,
  {0d2ed296-b55d-4189-ae1e-3d5aea37c009}, !- Handle
  1.1.0;                                  !- Version Identifier

OS:Construction,
  {45d2d01d-ae0a-4b05-aa49-ba39f96adcb4}, !- Handle
  Sgl Clr 3mm,                            !- Name
  ,                                       !- Surface Rendering Name
  {05daf86e-24fd-4594-8193-8835a8d6a6f2}; !- Layer 1

OS:WindowMaterial:Glazing,
  {05daf86e-24fd-4594-8193-8835a8d6a6f2}, !- Handle
  CLEAR 3MM,                              !- Name
  SpectralAverage,                        !- Optical Data Type
  ,                                       !- Window Glass Spectral Data Set Name
  0.003,                                  !- Thickness {m}
  0.837,                                  !- Solar Transmittance at Normal Incidence
  0.075,                                  !- Front Side Solar Reflectance at Normal Incidence
  0.075,                                  !- Back Side Solar Reflectance at Normal Incidence
  0.898,                                  !- Visible Transmittance at Normal Incidence
  0.081,                                  !- Front Side Visible Reflectance at Normal Incidence
  0.081,                                  !- Back Side Visible Reflectance at Normal Incidence
  0,                                      !- Infrared Transmittance at Normal Incidence
  0.84,                                   !- Front Side Infrared Hemispherical Emissivity
  0.84,                                   !- Back Side Infrared Hemispherical Emissivity
  0.9;                                    !- Conductivity {W/m-K}

