
OS:Version,
  {578d6843-fcfc-4b4b-ae28-8e057e8dfc58}, !- Handle
  1.1.0;                                  !- Version Identifier

OS:Construction,
  {75076ecd-7e76-4450-8f7c-6cc34357ec07}, !- Handle
  Sgl Clr 3mm,                            !- Name
  ,                                       !- Surface Rendering Name
  {fb816690-3096-4178-b071-9f1212f4efb7}; !- Layer 1

OS:WindowMaterial:Glazing,
  {fb816690-3096-4178-b071-9f1212f4efb7}, !- Handle
  CLEAR 3MM,                              !- Name
  SpectralAverage,                        !- Optical Data Type
  ,                                       !- Window Glass Spectral Data Set Name
  0.003,                                  !- Thickness {m}
  0.837,                                  !- Solar Transmittance at Normal Incidence
  0.075,                                  !- Front Side Solar Reflectance at Normal Incidence
  0.075,                                  !- Back Side Solar Reflectance at Normal Incidence
  0.898,                                  !- Visible Transmittance at Normal Incidence
  0.081,                                  !- Front Side Visible Reflectance at Normal Incidence
  0.081,                                  !- Back Side Visible Reflectance at Normal Incidence
  0,                                      !- Infrared Transmittance at Normal Incidence
  0.84,                                   !- Front Side Infrared Hemispherical Emissivity
  0.84,                                   !- Back Side Infrared Hemispherical Emissivity
  0.9;                                    !- Conductivity {W/m-K}

OS:ComponentData,
  {02506ed3-6b41-4588-af5b-b8ebf940542f}, !- Handle
  Component Data 1,                       !- Name
  {e51366e6-aadc-4293-8238-9acda2b7f066}, !- UUID
  {ea775c39-0c58-4091-ac7a-6b0e0b95057f}, !- Version UUID
  1384380192,                             !- Creation Timestamp
  1384380192,                             !- Version Timestamp
  {75076ecd-7e76-4450-8f7c-6cc34357ec07}, !- Name of Object 1
  {fb816690-3096-4178-b071-9f1212f4efb7}; !- Name of Object 2

