
OS:Version,
  {7b7c5886-cfe6-40bb-8441-ef2a2f7a66aa}, ! Handle
  0.9.3;                                  ! Version Identifier

OS:Material,
  {c685f282-ff5d-43a0-894e-0ab8f22de214}, ! Handle
  Wood Shingles,                          ! Name
  VeryRough,                              ! Roughness
  0.0178,                                 ! Thickness {m}
  0.115,                                  ! Conductivity {W/m-K}
  513,                                    ! Density {kg/m3}
  1255,                                   ! Specific Heat {J/kg-K}
  0.9,                                    ! Thermal Absorptance
  0.78,                                   ! Solar Absorptance
  0.78;                                   ! Visible Absorptance

OS:Material,
  {08ca3baa-5d2e-484e-a232-14958c184d87}, ! Handle
  Roof Insulation [5],                    ! Name
  MediumRough,                            ! Roughness
  0.286906,                               ! Thickness {m}
  0.049,                                  ! Conductivity {W/m-K}
  265,                                    ! Density {kg/m3}
  836.8,                                  ! Specific Heat {J/kg-K}
  0.9,                                    ! Thermal Absorptance
  0.7,                                    ! Solar Absorptance
  0.7;                                    ! Visible Absorptance

OS:ComponentCost:LineItem,
  {3cf11c6c-4d7d-4a60-b118-f31779c9dd84}, ! Handle
  90.1-2001 Res B1 Roof Attic and Other,  ! Name
  ,                                       ! Type
  Construction,                           ! Line Item Type
  90.1-2001 Res B1 Roof Attic and Other,  ! Item Name
  ,                                       ! Object End Use Key
  ,                                       ! Quantity {dimensionless}
  34.757,                                 ! Material Cost {$}
  CostPerArea;                            ! Material Cost Units

OS:Material,
  {2e5e2d85-3c42-4047-b95e-12463c85b782}, ! Handle
  1IN Wood Decking,                       ! Name
  MediumSmooth,                           ! Roughness
  0.0254,                                 ! Thickness {m}
  0.1211,                                 ! Conductivity {W/m-K}
  593,                                    ! Density {kg/m3}
  2510,                                   ! Specific Heat {J/kg-K}
  0.9,                                    ! Thermal Absorptance
  0.78,                                   ! Solar Absorptance
  0.78;                                   ! Visible Absorptance

OS:Material,
  {340b12ec-910d-4cb2-8d6a-e16e31404a4f}, ! Handle
  1/2IN Gypsum,                           ! Name
  Smooth,                                 ! Roughness
  0.01271,                                ! Thickness {m}
  0.16,                                   ! Conductivity {W/m-K}
  784.9,                                  ! Density {kg/m3}
  830,                                    ! Specific Heat {J/kg-K}
  0.9,                                    ! Thermal Absorptance
  0.92,                                   ! Solar Absorptance
  0.92;                                   ! Visible Absorptance

OS:Construction,
  {fe975427-9bf7-4414-b6e1-b157426de941}, ! Handle
  90.1-2001 Res B1 Roof Attic and Other,  ! Name
  ,                                       ! Surface Rendering Name
  {c685f282-ff5d-43a0-894e-0ab8f22de214}, ! Layer 1
  {2e5e2d85-3c42-4047-b95e-12463c85b782}, ! Layer 2
  {08ca3baa-5d2e-484e-a232-14958c184d87}, ! Layer 3
  {340b12ec-910d-4cb2-8d6a-e16e31404a4f}; ! Layer 4

