
OS:Version,
  {89b4ec5d-c892-475a-b179-71d98c67f7d0}, ! Handle
  0.9.3;                                  ! Version Identifier

OS:ComponentCost:LineItem,
  {200e9e26-9f80-4318-b4dc-a5ca7b1346a4}, ! Handle
  90.1-1999 Res B21 Ext Slab Unheated - 4in Slab with Carpet, ! Name
  ,                                       ! Type
  Construction,                           ! Line Item Type
  90.1-1999 Res B21 Ext Slab Unheated - 4in Slab with Carpet, ! Item Name
  ,                                       ! Object End Use Key
  ,                                       ! Quantity {dimensionless}
  45.52,                                  ! Material Cost {$}
  CostPerArea;                            ! Material Cost Units

OS:Material,
  {61e51024-5c17-4408-8ec6-74857cc28bed}, ! Handle
  MAT-CC05 4 HW CONCRETE,                 ! Name
  Rough,                                  ! Roughness
  0.1016,                                 ! Thickness {m}
  1.311,                                  ! Conductivity {W/m-K}
  2240,                                   ! Density {kg/m3}
  836.8,                                  ! Specific Heat {J/kg-K}
  0.9,                                    ! Thermal Absorptance
  0.7,                                    ! Solar Absorptance
  0.7;                                    ! Visible Absorptance

OS:Material:NoMass,
  {ab7a7e60-9262-491c-827b-1b449d4ca34a}, ! Handle
  CP02 CARPET PAD,                        ! Name
  VeryRough,                              ! Roughness
  0.21648,                                ! Thermal Resistance {m2-K/W}
  0.9,                                    ! Thermal Absorptance
  0.7,                                    ! Solar Absorptance
  0.8;                                    ! Visible Absorptance

OS:Construction,
  {2c2fd319-5127-4a38-b6a8-c9ea6a393046}, ! Handle
  90.1-1999 Res B21 Ext Slab Unheated - 4in Slab with Carpet, ! Name
  ,                                       ! Surface Rendering Name
  {61e51024-5c17-4408-8ec6-74857cc28bed}, ! Layer 1
  {ab7a7e60-9262-491c-827b-1b449d4ca34a}; ! Layer 2

