
OS:Version,
  {9394aad9-389c-4a75-a375-bbe660608564}, ! Handle
  0.9.3;                                  ! Version Identifier

OS:Construction,
  {e63b1979-69be-4904-9a7e-3a0a4844a6f6}, ! Handle
  189.1-2009 Res 4B Ext Wall Mass,        ! Name
  ,                                       ! Surface Rendering Name
  {dbc9472b-5e74-434d-96d4-c6c20df1de59}, ! Layer 1
  {f686910f-9440-411d-a683-9bafcbe0dcd8}, ! Layer 2
  {ccee102c-ef6b-4339-96eb-ffb39ef78ccf}, ! Layer 3
  {cb9625b1-aeda-485c-9f44-d5b3d4e80a4b}; ! Layer 4

OS:Material,
  {dbc9472b-5e74-434d-96d4-c6c20df1de59}, ! Handle
  1IN Stucco,                             ! Name
  Smooth,                                 ! Roughness
  0.0253,                                 ! Thickness {m}
  0.6918,                                 ! Conductivity {W/m-K}
  1858,                                   ! Density {kg/m3}
  837,                                    ! Specific Heat {J/kg-K}
  0.9,                                    ! Thermal Absorptance
  0.92,                                   ! Solar Absorptance
  0.92;                                   ! Visible Absorptance

OS:Material,
  {f686910f-9440-411d-a683-9bafcbe0dcd8}, ! Handle
  8IN Concrete HW,                        ! Name
  MediumRough,                            ! Roughness
  0.2033,                                 ! Thickness {m}
  1.7296,                                 ! Conductivity {W/m-K}
  2243,                                   ! Density {kg/m3}
  837,                                    ! Specific Heat {J/kg-K}
  0.9,                                    ! Thermal Absorptance
  0.65,                                   ! Solar Absorptance
  0.65;                                   ! Visible Absorptance

OS:Material,
  {ccee102c-ef6b-4339-96eb-ffb39ef78ccf}, ! Handle
  Wall Insulation [40],                   ! Name
  MediumRough,                            ! Roughness
  0.0793753,                              ! Thickness {m}
  0.0432,                                 ! Conductivity {W/m-K}
  91,                                     ! Density {kg/m3}
  837,                                    ! Specific Heat {J/kg-K}
  0.9,                                    ! Thermal Absorptance
  0.5,                                    ! Solar Absorptance
  0.5;                                    ! Visible Absorptance

OS:Material,
  {cb9625b1-aeda-485c-9f44-d5b3d4e80a4b}, ! Handle
  1/2IN Gypsum,                           ! Name
  Smooth,                                 ! Roughness
  0.01271,                                ! Thickness {m}
  0.16,                                   ! Conductivity {W/m-K}
  784.9,                                  ! Density {kg/m3}
  830,                                    ! Specific Heat {J/kg-K}
  0.9,                                    ! Thermal Absorptance
  0.92,                                   ! Solar Absorptance
  0.92;                                   ! Visible Absorptance

OS:ComponentCost:LineItem,
  {c94632d0-5e2a-4850-901e-ff813e51a3ef}, ! Handle
  189.1-2009 Res 4B Ext Wall Mass,        ! Name
  ,                                       ! Type
  Construction,                           ! Line Item Type
  189.1-2009 Res 4B Ext Wall Mass,        ! Item Name
  ,                                       ! Object End Use Key
  ,                                       ! Quantity {dimensionless}
  68.13,                                  ! Material Cost {$}
  CostPerArea;                            ! Material Cost Units

OS:ComponentData,
  {82402f98-6c4b-4d81-a7ff-8b5d2a8e0f1a}, ! Handle
  Component Data 1,                       ! Name
  {94b81953-b348-43d8-b7ee-2d91a7075cdd}, ! UUID
  {fa08e96b-3dbc-47e3-b601-a7540bcd63be}, ! Version UUID
  1363980971,                             ! Creation Timestamp
  1363980971,                             ! Version Timestamp
  {e63b1979-69be-4904-9a7e-3a0a4844a6f6}, ! Name of Object 1
  {dbc9472b-5e74-434d-96d4-c6c20df1de59}, ! Name of Object 2
  {f686910f-9440-411d-a683-9bafcbe0dcd8}, ! Name of Object 3
  {ccee102c-ef6b-4339-96eb-ffb39ef78ccf}, ! Name of Object 4
  {cb9625b1-aeda-485c-9f44-d5b3d4e80a4b}, ! Name of Object 5
  {c94632d0-5e2a-4850-901e-ff813e51a3ef}; ! Name of Object 6

