
OS:Version,
  {89f2ee54-888c-45bf-954e-35bb802500b8}, ! Handle
  0.9.3;                                  ! Version Identifier

OS:Material,
  {4e94caa0-cd41-4c05-8491-d9e6cf7a3e89}, ! Handle
  8IN Concrete HW,                        ! Name
  MediumRough,                            ! Roughness
  0.2033,                                 ! Thickness {m}
  1.7296,                                 ! Conductivity {W/m-K}
  2243,                                   ! Density {kg/m3}
  837,                                    ! Specific Heat {J/kg-K}
  0.9,                                    ! Thermal Absorptance
  0.65,                                   ! Solar Absorptance
  0.65;                                   ! Visible Absorptance

OS:ComponentCost:LineItem,
  {58b274a6-237d-47fb-a1f1-ca7131d61fc7}, ! Handle
  189.1-2009 Res 4B Ext Wall Mass,        ! Name
  ,                                       ! Type
  Construction,                           ! Line Item Type
  189.1-2009 Res 4B Ext Wall Mass,        ! Item Name
  ,                                       ! Object End Use Key
  ,                                       ! Quantity {dimensionless}
  68.13,                                  ! Material Cost {$}
  CostPerArea;                            ! Material Cost Units

OS:Material,
  {85e2585f-2982-4747-b87e-1aaabac016b8}, ! Handle
  Wall Insulation [40],                   ! Name
  MediumRough,                            ! Roughness
  0.0793753,                              ! Thickness {m}
  0.0432,                                 ! Conductivity {W/m-K}
  91,                                     ! Density {kg/m3}
  837,                                    ! Specific Heat {J/kg-K}
  0.9,                                    ! Thermal Absorptance
  0.5,                                    ! Solar Absorptance
  0.5;                                    ! Visible Absorptance

OS:Material,
  {911c4c29-f7c7-4e99-a11c-a96fd055bdf3}, ! Handle
  1/2IN Gypsum,                           ! Name
  Smooth,                                 ! Roughness
  0.01271,                                ! Thickness {m}
  0.16,                                   ! Conductivity {W/m-K}
  784.9,                                  ! Density {kg/m3}
  830,                                    ! Specific Heat {J/kg-K}
  0.9,                                    ! Thermal Absorptance
  0.92,                                   ! Solar Absorptance
  0.92;                                   ! Visible Absorptance

OS:Construction,
  {8f1c6443-e06c-41ab-b0a1-678e9ccb8933}, ! Handle
  189.1-2009 Res 4B Ext Wall Mass,        ! Name
  ,                                       ! Surface Rendering Name
  {d253eeb8-2cf6-48dc-b24c-c532ee099cab}, ! Layer 1
  {4e94caa0-cd41-4c05-8491-d9e6cf7a3e89}, ! Layer 2
  {85e2585f-2982-4747-b87e-1aaabac016b8}, ! Layer 3
  {911c4c29-f7c7-4e99-a11c-a96fd055bdf3}; ! Layer 4

OS:Material,
  {d253eeb8-2cf6-48dc-b24c-c532ee099cab}, ! Handle
  1IN Stucco,                             ! Name
  Smooth,                                 ! Roughness
  0.0253,                                 ! Thickness {m}
  0.6918,                                 ! Conductivity {W/m-K}
  1858,                                   ! Density {kg/m3}
  837,                                    ! Specific Heat {J/kg-K}
  0.9,                                    ! Thermal Absorptance
  0.92,                                   ! Solar Absorptance
  0.92;                                   ! Visible Absorptance

