
OS:Version,
  {bc96b845-1dfa-4892-8153-43b12b992b2e}, ! Handle
  0.9.3;                                  ! Version Identifier

OS:Construction,
  {8e966119-a1e6-4c31-bdaf-7d1c614acfd1}, ! Handle
  189.1-2009 Res 4B Exposed Floor Mass,   ! Name
  ,                                       ! Surface Rendering Name
  {ac438e87-aba2-451d-8bc3-f7074c824834}, ! Layer 1
  {40a653a5-6286-4c2a-b360-8f0161528c59}, ! Layer 2
  {f9fc82b9-1f10-4887-aa01-91fc06419bc9}; ! Layer 3

OS:Material,
  {ac438e87-aba2-451d-8bc3-f7074c824834}, ! Handle
  Floor Insulation [9],                   ! Name
  MediumRough,                            ! Roughness
  0.097281,                               ! Thickness {m}
  0.045,                                  ! Conductivity {W/m-K}
  265,                                    ! Density {kg/m3}
  836.8,                                  ! Specific Heat {J/kg-K}
  0.9,                                    ! Thermal Absorptance
  0.7,                                    ! Solar Absorptance
  0.7;                                    ! Visible Absorptance

OS:Material,
  {40a653a5-6286-4c2a-b360-8f0161528c59}, ! Handle
  MAT-CC05 8 HW CONCRETE,                 ! Name
  Rough,                                  ! Roughness
  0.20321,                                ! Thickness {m}
  1.311,                                  ! Conductivity {W/m-K}
  2240,                                   ! Density {kg/m3}
  836.8,                                  ! Specific Heat {J/kg-K}
  0.9,                                    ! Thermal Absorptance
  0.7,                                    ! Solar Absorptance
  0.7;                                    ! Visible Absorptance

OS:Material:NoMass,
  {f9fc82b9-1f10-4887-aa01-91fc06419bc9}, ! Handle
  CP02 CARPET PAD,                        ! Name
  VeryRough,                              ! Roughness
  0.21648,                                ! Thermal Resistance {m2-K/W}
  0.9,                                    ! Thermal Absorptance
  0.7,                                    ! Solar Absorptance
  0.8;                                    ! Visible Absorptance

OS:ComponentCost:LineItem,
  {92c3f4fe-c744-4429-b9f0-0fb4048f4af5}, ! Handle
  189.1-2009 Res 4B Exposed Floor Mass,   ! Name
  ,                                       ! Type
  Construction,                           ! Line Item Type
  189.1-2009 Res 4B Exposed Floor Mass,   ! Item Name
  ,                                       ! Object End Use Key
  ,                                       ! Quantity {dimensionless}
  54.312,                                 ! Material Cost {$}
  CostPerArea;                            ! Material Cost Units

