
OS:Version,
  {c1d34b4b-652c-4a46-90a5-1e0fa1dfe402}, ! Handle
  0.9.3;                                  ! Version Identifier

OS:ComponentCost:LineItem,
  {7f9c2b74-a1e7-421a-900f-a30f5016164a}, ! Handle
  Title 24-2008 Nonres 2 Roof IEAD,       ! Name
  ,                                       ! Type
  Construction,                           ! Line Item Type
  Title 24-2008 Nonres 2 Roof IEAD,       ! Item Name
  ,                                       ! Object End Use Key
  ,                                       ! Quantity {dimensionless}
  56.579,                                 ! Material Cost {$}
  CostPerArea;                            ! Material Cost Units

OS:Construction,
  {d83fa27a-8d91-47e7-91f4-500fd2688378}, ! Handle
  Title 24-2008 Nonres 2 Roof IEAD,       ! Name
  ,                                       ! Surface Rendering Name
  {7f9a90c6-ae45-4a35-b347-3e6e65fd6392}, ! Layer 1
  {2ff6e3e2-eac6-4dfd-8b4c-027b449440b1}, ! Layer 2
  {bfd1558b-ccbd-45f2-a7ee-68eb78e8c87d}; ! Layer 3

OS:Material,
  {7f9a90c6-ae45-4a35-b347-3e6e65fd6392}, ! Handle
  Roof Membrane [2],                      ! Name
  VeryRough,                              ! Roughness
  0.0095,                                 ! Thickness {m}
  0.16,                                   ! Conductivity {W/m-K}
  1121.29,                                ! Density {kg/m3}
  1460,                                   ! Specific Heat {J/kg-K}
  0.9,                                    ! Thermal Absorptance
  0.7,                                    ! Solar Absorptance
  0.85;                                   ! Visible Absorptance

OS:Material,
  {2ff6e3e2-eac6-4dfd-8b4c-027b449440b1}, ! Handle
  Roof Insulation [31],                   ! Name
  MediumRough,                            ! Roughness
  0.209546,                               ! Thickness {m}
  0.049,                                  ! Conductivity {W/m-K}
  265,                                    ! Density {kg/m3}
  836.8,                                  ! Specific Heat {J/kg-K}
  0.9,                                    ! Thermal Absorptance
  0.7,                                    ! Solar Absorptance
  0.7;                                    ! Visible Absorptance

OS:Material,
  {bfd1558b-ccbd-45f2-a7ee-68eb78e8c87d}, ! Handle
  Metal Decking,                          ! Name
  MediumSmooth,                           ! Roughness
  0.001524,                               ! Thickness {m}
  45.006,                                 ! Conductivity {W/m-K}
  7680,                                   ! Density {kg/m3}
  418.4,                                  ! Specific Heat {J/kg-K}
  0.9,                                    ! Thermal Absorptance
  0.7,                                    ! Solar Absorptance
  0.3;                                    ! Visible Absorptance

