
OS:Version,
  {2c328d32-457b-48ae-8c82-d0c84cc6ea25}, ! Handle
  0.9.3;                                  ! Version Identifier

OS:Construction,
  {42baed93-0f04-4dd0-bd2a-f9318b8ae9f7}, ! Handle
  90.1-2001 Nonres B6 Ext Slab Unheated - 4in Slab without Carpet, ! Name
  ,                                       ! Surface Rendering Name
  {eeff29e4-0dd8-41d1-829d-ed9ba8b5943e}; ! Layer 1

OS:Material,
  {eeff29e4-0dd8-41d1-829d-ed9ba8b5943e}, ! Handle
  MAT-CC05 4 HW CONCRETE,                 ! Name
  Rough,                                  ! Roughness
  0.1016,                                 ! Thickness {m}
  1.311,                                  ! Conductivity {W/m-K}
  2240,                                   ! Density {kg/m3}
  836.8,                                  ! Specific Heat {J/kg-K}
  0.9,                                    ! Thermal Absorptance
  0.7,                                    ! Solar Absorptance
  0.7;                                    ! Visible Absorptance

OS:ComponentCost:LineItem,
  {813fa65d-588c-48a8-8e71-b37f7f568105}, ! Handle
  90.1-2001 Nonres B6 Ext Slab Unheated - 4in Slab without Carpet, ! Name
  ,                                       ! Type
  Construction,                           ! Line Item Type
  90.1-2001 Nonres B6 Ext Slab Unheated - 4in Slab without Carpet, ! Item Name
  ,                                       ! Object End Use Key
  ,                                       ! Quantity {dimensionless}
  45.52,                                  ! Material Cost {$}
  CostPerArea;                            ! Material Cost Units

