
OS:Version,
  {8a001491-d0e6-4f7d-a4a8-d8a2021c8d19}, ! Handle
  0.9.3;                                  ! Version Identifier

OS:Material,
  {65336859-1306-409c-bc72-70d513245c69}, ! Handle
  1/2IN Gypsum,                           ! Name
  Smooth,                                 ! Roughness
  0.01271,                                ! Thickness {m}
  0.16,                                   ! Conductivity {W/m-K}
  784.9,                                  ! Density {kg/m3}
  830,                                    ! Specific Heat {J/kg-K}
  0.9,                                    ! Thermal Absorptance
  0.92,                                   ! Solar Absorptance
  0.92;                                   ! Visible Absorptance

OS:Construction,
  {7d983d62-f1ab-4752-a562-7e0dbba005ef}, ! Handle
  90.1-2007 Res 3A Ext Wall Mass,         ! Name
  ,                                       ! Surface Rendering Name
  {15944912-f4ed-4a8b-871e-6bd0e9631ab0}, ! Layer 1
  {36bd8bfb-c85a-41df-b916-0a6ffbcd5c0b}, ! Layer 2
  {1a736daf-38cb-49c7-85ad-7654e2f55ba0}, ! Layer 3
  {65336859-1306-409c-bc72-70d513245c69}; ! Layer 4

OS:Material,
  {15944912-f4ed-4a8b-871e-6bd0e9631ab0}, ! Handle
  1IN Stucco,                             ! Name
  Smooth,                                 ! Roughness
  0.0253,                                 ! Thickness {m}
  0.6918,                                 ! Conductivity {W/m-K}
  1858,                                   ! Density {kg/m3}
  837,                                    ! Specific Heat {J/kg-K}
  0.9,                                    ! Thermal Absorptance
  0.92,                                   ! Solar Absorptance
  0.92;                                   ! Visible Absorptance

OS:Material,
  {36bd8bfb-c85a-41df-b916-0a6ffbcd5c0b}, ! Handle
  8IN Concrete HW,                        ! Name
  MediumRough,                            ! Roughness
  0.2033,                                 ! Thickness {m}
  1.7296,                                 ! Conductivity {W/m-K}
  2243,                                   ! Density {kg/m3}
  837,                                    ! Specific Heat {J/kg-K}
  0.9,                                    ! Thermal Absorptance
  0.65,                                   ! Solar Absorptance
  0.65;                                   ! Visible Absorptance

OS:Material,
  {1a736daf-38cb-49c7-85ad-7654e2f55ba0}, ! Handle
  Wall Insulation [7],                    ! Name
  MediumRough,                            ! Roughness
  0.056577,                               ! Thickness {m}
  0.0432,                                 ! Conductivity {W/m-K}
  91,                                     ! Density {kg/m3}
  837,                                    ! Specific Heat {J/kg-K}
  0.9,                                    ! Thermal Absorptance
  0.5,                                    ! Solar Absorptance
  0.5;                                    ! Visible Absorptance

OS:ComponentCost:LineItem,
  {ca15ffc7-ed1e-428c-b17c-facc871eff5b}, ! Handle
  90.1-2007 Res 3A Ext Wall Mass,         ! Name
  ,                                       ! Type
  Construction,                           ! Line Item Type
  90.1-2007 Res 3A Ext Wall Mass,         ! Item Name
  ,                                       ! Object End Use Key
  ,                                       ! Quantity {dimensionless}
  63.663,                                 ! Material Cost {$}
  CostPerArea;                            ! Material Cost Units

