
OS:Version,
  {b1663f00-0417-48ae-913e-2d92cd256e44}, ! Handle
  0.9.3;                                  ! Version Identifier

OS:Material,
  {14c6bfab-3aa2-46c0-ae4c-e807c3d75770}, ! Handle
  Roof Insulation [1],                    ! Name
  MediumRough,                            ! Roughness
  0.123533,                               ! Thickness {m}
  0.049,                                  ! Conductivity {W/m-K}
  265,                                    ! Density {kg/m3}
  836.8,                                  ! Specific Heat {J/kg-K}
  0.9,                                    ! Thermal Absorptance
  0.7,                                    ! Solar Absorptance
  0.7;                                    ! Visible Absorptance

OS:Material,
  {50f1c3e4-2c06-4f9b-ad45-e8d8ec198411}, ! Handle
  Metal Roofing,                          ! Name
  MediumSmooth,                           ! Roughness
  0.001524,                               ! Thickness {m}
  45.006,                                 ! Conductivity {W/m-K}
  7680,                                   ! Density {kg/m3}
  418.4,                                  ! Specific Heat {J/kg-K}
  0.9,                                    ! Thermal Absorptance
  0.7,                                    ! Solar Absorptance
  0.3;                                    ! Visible Absorptance

OS:Construction,
  {2e9bbf45-6f04-4c74-b8ac-fa76a569ccd2}, ! Handle
  90.1-2001 Res B12 Roof Metal Building,  ! Name
  ,                                       ! Surface Rendering Name
  {50f1c3e4-2c06-4f9b-ad45-e8d8ec198411}, ! Layer 1
  {14c6bfab-3aa2-46c0-ae4c-e807c3d75770}; ! Layer 2

OS:ComponentCost:LineItem,
  {948a3bb0-eb27-4a81-8480-9d5c4fde5fc2}, ! Handle
  90.1-2001 Res B12 Roof Metal Building,  ! Name
  ,                                       ! Type
  Construction,                           ! Line Item Type
  90.1-2001 Res B12 Roof Metal Building,  ! Item Name
  ,                                       ! Object End Use Key
  ,                                       ! Quantity {dimensionless}
  38.206,                                 ! Material Cost {$}
  CostPerArea;                            ! Material Cost Units

