
OS:Version,
  {92515d9b-0070-4843-8212-31f3b6466dea}, ! Handle
  0.9.3;                                  ! Version Identifier

OS:ComponentCost:LineItem,
  {c59c052e-4412-4e7e-8f4c-5c5b5c06ca1a}, ! Handle
  90.1-1999 Res B22 Ext Slab Unheated - 8in Slab without Carpet, ! Name
  ,                                       ! Type
  Construction,                           ! Line Item Type
  90.1-1999 Res B22 Ext Slab Unheated - 8in Slab without Carpet, ! Item Name
  ,                                       ! Object End Use Key
  ,                                       ! Quantity {dimensionless}
  45.52,                                  ! Material Cost {$}
  CostPerArea;                            ! Material Cost Units

OS:Construction,
  {c354f06d-1499-4a55-a77e-55b6f47e1367}, ! Handle
  90.1-1999 Res B22 Ext Slab Unheated - 8in Slab without Carpet, ! Name
  ,                                       ! Surface Rendering Name
  {bd8d6d44-b418-4a02-b0f8-70063bbd9f13}; ! Layer 1

OS:Material,
  {bd8d6d44-b418-4a02-b0f8-70063bbd9f13}, ! Handle
  MAT-CC05 8 HW CONCRETE,                 ! Name
  Rough,                                  ! Roughness
  0.20321,                                ! Thickness {m}
  1.311,                                  ! Conductivity {W/m-K}
  2240,                                   ! Density {kg/m3}
  836.8,                                  ! Specific Heat {J/kg-K}
  0.9,                                    ! Thermal Absorptance
  0.7,                                    ! Solar Absorptance
  0.7;                                    ! Visible Absorptance

