
OS:Version,
  {aa4d98fe-1b73-4cd6-9ed7-60f8638396eb}, ! Handle
  0.9.3;                                  ! Version Identifier

OS:Construction,
  {32ce79ec-c105-44ae-b3a7-a35ebf3afe5e}, ! Handle
  90.1-1999 Res B19 Ext Slab Unheated - 4in Slab with Carpet, ! Name
  ,                                       ! Surface Rendering Name
  {04a1a2bd-1501-4b2a-978e-0b69a57f3421}, ! Layer 1
  {13149402-7f37-4c25-b89f-5e5f7c61bd34}; ! Layer 2

OS:Material,
  {04a1a2bd-1501-4b2a-978e-0b69a57f3421}, ! Handle
  MAT-CC05 4 HW CONCRETE,                 ! Name
  Rough,                                  ! Roughness
  0.1016,                                 ! Thickness {m}
  1.311,                                  ! Conductivity {W/m-K}
  2240,                                   ! Density {kg/m3}
  836.8,                                  ! Specific Heat {J/kg-K}
  0.9,                                    ! Thermal Absorptance
  0.7,                                    ! Solar Absorptance
  0.7;                                    ! Visible Absorptance

OS:Material:NoMass,
  {13149402-7f37-4c25-b89f-5e5f7c61bd34}, ! Handle
  CP02 CARPET PAD,                        ! Name
  VeryRough,                              ! Roughness
  0.21648,                                ! Thermal Resistance {m2-K/W}
  0.9,                                    ! Thermal Absorptance
  0.7,                                    ! Solar Absorptance
  0.8;                                    ! Visible Absorptance

OS:ComponentCost:LineItem,
  {de57702c-c850-4635-bb82-7e3b906b720d}, ! Handle
  90.1-1999 Res B19 Ext Slab Unheated - 4in Slab with Carpet, ! Name
  ,                                       ! Type
  Construction,                           ! Line Item Type
  90.1-1999 Res B19 Ext Slab Unheated - 4in Slab with Carpet, ! Item Name
  ,                                       ! Object End Use Key
  ,                                       ! Quantity {dimensionless}
  45.52,                                  ! Material Cost {$}
  CostPerArea;                            ! Material Cost Units

