
OS:Version,
  {ef9fa7e4-0864-4500-966b-0729cab481ad}, ! Handle
  0.9.3;                                  ! Version Identifier

OS:ComponentCost:LineItem,
  {872cd5a9-81d3-476c-b562-ba07310fbce2}, ! Handle
  AEDG-SmOffice 4B Ext Slab Unheated - 4in Slab with Carpet, ! Name
  ,                                       ! Type
  Construction,                           ! Line Item Type
  AEDG-SmOffice 4B Ext Slab Unheated - 4in Slab with Carpet, ! Item Name
  ,                                       ! Object End Use Key
  ,                                       ! Quantity {dimensionless}
  45.52,                                  ! Material Cost {$}
  CostPerArea;                            ! Material Cost Units

OS:Construction,
  {070e4c7c-b6ea-465f-9f9e-27ad3de344ff}, ! Handle
  AEDG-SmOffice 4B Ext Slab Unheated - 4in Slab with Carpet, ! Name
  ,                                       ! Surface Rendering Name
  {1f273e21-d894-40db-8182-0f72ad85a41d}, ! Layer 1
  {a834c75f-f0cb-44f5-bca5-7857ee7c62c3}; ! Layer 2

OS:Material,
  {1f273e21-d894-40db-8182-0f72ad85a41d}, ! Handle
  MAT-CC05 4 HW CONCRETE,                 ! Name
  Rough,                                  ! Roughness
  0.1016,                                 ! Thickness {m}
  1.311,                                  ! Conductivity {W/m-K}
  2240,                                   ! Density {kg/m3}
  836.8,                                  ! Specific Heat {J/kg-K}
  0.9,                                    ! Thermal Absorptance
  0.7,                                    ! Solar Absorptance
  0.7;                                    ! Visible Absorptance

OS:Material:NoMass,
  {a834c75f-f0cb-44f5-bca5-7857ee7c62c3}, ! Handle
  CP02 CARPET PAD,                        ! Name
  VeryRough,                              ! Roughness
  0.21648,                                ! Thermal Resistance {m2-K/W}
  0.9,                                    ! Thermal Absorptance
  0.7,                                    ! Solar Absorptance
  0.8;                                    ! Visible Absorptance

