
OS:Version,
  {ff1a05d8-3aee-4eff-870c-817835195729}, ! Handle
  0.9.3;                                  ! Version Identifier

OS:Material,
  {69547d08-7b4f-4768-a4ea-5f53dc2c2fa4}, ! Handle
  Wall Insulation [13],                   ! Name
  MediumRough,                            ! Roughness
  0.140713,                               ! Thickness {m}
  0.045,                                  ! Conductivity {W/m-K}
  265,                                    ! Density {kg/m3}
  836.8,                                  ! Specific Heat {J/kg-K}
  0.9,                                    ! Thermal Absorptance
  0.7,                                    ! Solar Absorptance
  0.7;                                    ! Visible Absorptance

OS:Material,
  {949f7a97-3e4d-4e77-b892-8e70cd71c7c1}, ! Handle
  1/2IN Gypsum,                           ! Name
  Smooth,                                 ! Roughness
  0.01271,                                ! Thickness {m}
  0.16,                                   ! Conductivity {W/m-K}
  784.9,                                  ! Density {kg/m3}
  830,                                    ! Specific Heat {J/kg-K}
  0.9,                                    ! Thermal Absorptance
  0.92,                                   ! Solar Absorptance
  0.92;                                   ! Visible Absorptance

OS:ComponentCost:LineItem,
  {7b80367a-83e8-4e64-aefd-354870d94c79}, ! Handle
  90.1-2001 Res B23 Ext Wall Wood-Framed and Other, ! Name
  ,                                       ! Type
  Construction,                           ! Line Item Type
  90.1-2001 Res B23 Ext Wall Wood-Framed and Other, ! Item Name
  ,                                       ! Object End Use Key
  ,                                       ! Quantity {dimensionless}
  80.638,                                 ! Material Cost {$}
  CostPerArea;                            ! Material Cost Units

OS:Material,
  {f0c4e594-2a55-4e91-8a8d-bb64a25671e0}, ! Handle
  Wood Siding,                            ! Name
  MediumSmooth,                           ! Roughness
  0.01,                                   ! Thickness {m}
  0.11,                                   ! Conductivity {W/m-K}
  544.62,                                 ! Density {kg/m3}
  1210,                                   ! Specific Heat {J/kg-K}
  0.9,                                    ! Thermal Absorptance
  0.78,                                   ! Solar Absorptance
  0.78;                                   ! Visible Absorptance

OS:Construction,
  {6a723e28-f66b-4654-af2d-ec6786f0e671}, ! Handle
  90.1-2001 Res B23 Ext Wall Wood-Framed and Other, ! Name
  ,                                       ! Surface Rendering Name
  {f0c4e594-2a55-4e91-8a8d-bb64a25671e0}, ! Layer 1
  {69547d08-7b4f-4768-a4ea-5f53dc2c2fa4}, ! Layer 2
  {949f7a97-3e4d-4e77-b892-8e70cd71c7c1}; ! Layer 3

