
OS:Version,
  {3d31e967-04fa-4f9f-9028-c9b01e701d7f}, ! Handle
  0.9.3;                                  ! Version Identifier

OS:Construction,
  {30345764-aacb-4c59-9247-a10b14384a0f}, ! Handle
  90.1-2001 Res B23 Ext Wall Wood-Framed and Other, ! Name
  ,                                       ! Surface Rendering Name
  {88a690f1-9ced-4464-867f-0a262e7dba14}, ! Layer 1
  {6fdd7e69-884a-43ed-ae5d-5d8a5c238dfd}, ! Layer 2
  {339ad008-b937-4b6d-89d2-ee6b2044fe03}; ! Layer 3

OS:Material,
  {88a690f1-9ced-4464-867f-0a262e7dba14}, ! Handle
  Wood Siding,                            ! Name
  MediumSmooth,                           ! Roughness
  0.01,                                   ! Thickness {m}
  0.11,                                   ! Conductivity {W/m-K}
  544.62,                                 ! Density {kg/m3}
  1210,                                   ! Specific Heat {J/kg-K}
  0.9,                                    ! Thermal Absorptance
  0.78,                                   ! Solar Absorptance
  0.78;                                   ! Visible Absorptance

OS:Material,
  {6fdd7e69-884a-43ed-ae5d-5d8a5c238dfd}, ! Handle
  Wall Insulation [13],                   ! Name
  MediumRough,                            ! Roughness
  0.140713,                               ! Thickness {m}
  0.045,                                  ! Conductivity {W/m-K}
  265,                                    ! Density {kg/m3}
  836.8,                                  ! Specific Heat {J/kg-K}
  0.9,                                    ! Thermal Absorptance
  0.7,                                    ! Solar Absorptance
  0.7;                                    ! Visible Absorptance

OS:Material,
  {339ad008-b937-4b6d-89d2-ee6b2044fe03}, ! Handle
  1/2IN Gypsum,                           ! Name
  Smooth,                                 ! Roughness
  0.01271,                                ! Thickness {m}
  0.16,                                   ! Conductivity {W/m-K}
  784.9,                                  ! Density {kg/m3}
  830,                                    ! Specific Heat {J/kg-K}
  0.9,                                    ! Thermal Absorptance
  0.92,                                   ! Solar Absorptance
  0.92;                                   ! Visible Absorptance

OS:ComponentCost:LineItem,
  {7f3d99dd-e472-4493-81c1-6137ab205ec3}, ! Handle
  90.1-2001 Res B23 Ext Wall Wood-Framed and Other, ! Name
  ,                                       ! Type
  Construction,                           ! Line Item Type
  90.1-2001 Res B23 Ext Wall Wood-Framed and Other, ! Item Name
  ,                                       ! Object End Use Key
  ,                                       ! Quantity {dimensionless}
  80.638,                                 ! Material Cost {$}
  CostPerArea;                            ! Material Cost Units

OS:ComponentData,
  {e285c6a6-c91e-4982-aea3-a74504d59663}, ! Handle
  Component Data 1,                       ! Name
  {c1d922a0-4858-4272-a23d-fa33e0a70893}, ! UUID
  {e673d1d2-82dd-485d-90d1-8bb9b98c8af0}, ! Version UUID
  1363981597,                             ! Creation Timestamp
  1363981597,                             ! Version Timestamp
  {30345764-aacb-4c59-9247-a10b14384a0f}, ! Name of Object 1
  {88a690f1-9ced-4464-867f-0a262e7dba14}, ! Name of Object 2
  {6fdd7e69-884a-43ed-ae5d-5d8a5c238dfd}, ! Name of Object 3
  {339ad008-b937-4b6d-89d2-ee6b2044fe03}, ! Name of Object 4
  {7f3d99dd-e472-4493-81c1-6137ab205ec3}; ! Name of Object 5

