
OS:Version,
  {b8154cd8-4965-4c44-9abc-b18d07a9eeea}, ! Handle
  0.9.3;                                  ! Version Identifier

OS:Construction,
  {6a1958df-2e71-4ef3-9611-d04fc1583343}, ! Handle
  90.1 Windows Window Fixed 2660 Vnl-ClrSpe-Ins-ClrSpe, ! Name
  ,                                       ! Surface Rendering Name
  {c81aa9e7-2a15-4705-a57f-d6a9cd1c9df6}; ! Layer 1

OS:WindowMaterial:Glazing,
  {c81aa9e7-2a15-4705-a57f-d6a9cd1c9df6}, ! Handle
  Theoretical Glass [606],                ! Name
  SpectralAverage,                        ! Optical Data Type
  ,                                       ! Window Glass Spectral Data Set Name
  0.003,                                  ! Thickness {m}
  0.425891,                               ! Solar Transmittance at Normal Incidence
  0.524109,                               ! Front Side Solar Reflectance at Normal Incidence
  0.524109,                               ! Back Side Solar Reflectance at Normal Incidence
  0.579352,                               ! Visible Transmittance at Normal Incidence
  0.370648,                               ! Front Side Visible Reflectance at Normal Incidence
  0.370648,                               ! Back Side Visible Reflectance at Normal Incidence
  0,                                      ! Infrared Transmittance at Normal Incidence
  0.9,                                    ! Front Side Infrared Hemispherical Emissivity
  0.9,                                    ! Back Side Infrared Hemispherical Emissivity
  0.00776668;                             ! Conductivity {W/m-K}

OS:ComponentCost:LineItem,
  {01f824a1-f18c-4c0c-b590-c06ba0ab07eb}, ! Handle
  90.1 Windows Window Fixed 2660 Vnl-ClrSpe-Ins-ClrSpe, ! Name
  ,                                       ! Type
  Construction,                           ! Line Item Type
  90.1 Windows Window Fixed 2660 Vnl-ClrSpe-Ins-ClrSpe, ! Item Name
  ,                                       ! Object End Use Key
  ,                                       ! Quantity {dimensionless}
  0,                                      ! Material Cost {$}
  CostPerArea;                            ! Material Cost Units

OS:ComponentData,
  {134b93d7-0874-4d1b-aae7-c1b95534d0a7}, ! Handle
  Component Data 1,                       ! Name
  {8a106562-253a-4be9-ad2e-cbccd8fa0e86}, ! UUID
  {af7ef3ee-acd6-45e3-98d3-7ac22105f235}, ! Version UUID
  1363981032,                             ! Creation Timestamp
  1363981032,                             ! Version Timestamp
  {6a1958df-2e71-4ef3-9611-d04fc1583343}, ! Name of Object 1
  {c81aa9e7-2a15-4705-a57f-d6a9cd1c9df6}, ! Name of Object 2
  {01f824a1-f18c-4c0c-b590-c06ba0ab07eb}; ! Name of Object 3

