
OS:Version,
  {2a1ec191-d3fa-4339-8ec2-6035364be7d5}, ! Handle
  0.9.3;                                  ! Version Identifier

OS:Construction,
  {2c42b25f-4f49-49a2-b014-9f86e9a8c6c0}, !- Handle
  CLIMALIT PLUS con COOL LITE ST 067 F2 6 (16 argon90%) 44.2 DIAMANT,                         !- Name
  ,                                       !- Surface Rendering Name
  {b451bee6-9140-4ca4-82f1-23de8e91bb4d}; !- Layer 1  
  



        
OS:WindowMaterial:SimpleGlazingSystem,
  {b451bee6-9140-4ca4-82f1-23de8e91bb4d}, !- Handle
  CLIMALIT PLUS con COOL LITE ST 067 F2 6 (16 argon90%) 44.2 DIAMANT, !- Name
  2.5,                                    !- U-Factor {W/m2-K}
  0.62,                                    !- Solar Heat Gain Coefficient
  0.62;                                    !- Visible Transmittance     


OS:ComponentCost:LineItem,
  {c37d560a-7b20-4f74-a7fb-f83b4dd2921f}, ! Handle
  CLIMALIT PLUS con COOL LITE ST 067 F2 6 (16 argon90%) 44.2 DIAMANT,        ! Name
  ,                                       ! Type
  Construction,                           ! Line Item Type
  CLIMALIT PLUS con COOL LITE ST 067 F2 6 (16 argon90%) 44.2 DIAMANT,        ! Item Name
  ,                                       ! Object End Use Key
  ,                                       ! Quantity {dimensionless}
  600.0,                                ! Material Cost {$}
  CostPerArea;                            ! Material Cost Units



OS:ComponentData,
  {31fa1614-b7ac-46f9-99b3-2fc750382231}, ! Handle
  Component Data 1,                       ! Name
  {7d147335-a7f4-494f-97d2-310e5a1e7a24}, ! UUID
  {21234472-b4b8-4635-b647-73a0e544fd5f}, ! Version UUID
  1487924013,                             ! Creation Timestamp
  1487924013,                             ! Version Timestamp
  {2c42b25f-4f49-49a2-b014-9f86e9a8c6c0}, ! Name of Object 1
  {b451bee6-9140-4ca4-82f1-23de8e91bb4d}, ! Name of Object 2
  {c37d560a-7b20-4f74-a7fb-f83b4dd2921f}; ! Name of Object 3

  

