
! 
OS:Version,
  {9c37d538-db0d-4a47-9850-5bede7e76bd5}, !- Handle
  1.13.0;                                 !- Version Identifier


! {"nombreProductoCorto": "CLIMALIT PLUS con COOL LITE ST 067 F2 6 (16 argon90%) 44.2 DIAMANT", "codigoEAN": "", "handle": "b451bee6-9140-4ca4-82f1-23de8e91bb4d", "g": 0.62, "tV": 0.62, "u": 2.5, "nombreProducto": "CLIMALIT PLUS con COOL LITE ST 067 F2 6 (16 argon90%) 44.2 DIAMANT\nU:2.5 W/m2K - g:0.62 - Tv: 0.62"}
OS:WindowMaterial:SimpleGlazingSystem,
  {b451bee6-9140-4ca4-82f1-23de8e91bb4d}, !- Handle
  CLIMALIT PLUS con COOL LITE ST 067 F2 6 (16 argon90%) 44.2 DIAMANT, !- Name
  2.5,                                    !- U-Factor {W/m2-K}
  0.62,                                    !- Solar Heat Gain Coefficient
  0.62;                                    !- Visible Transmittance     
  
  
OS:Construction,
  {bebcdb1e-3e1e-47b3-91e3-f7c82818707c}, !- Handle
  CLIMALIT PLUS con COOL LITE ST 067 F2 6 (16 argon90%) 44.2 DIAMANT,                         !- Name
  ,                                       !- Surface Rendering Name
  {b451bee6-9140-4ca4-82f1-23de8e91bb4d}; !- Layer 1  

