
OS:Version,
  {0583a610-3a69-44eb-8561-6564cc90904f}, ! Handle
  0.9.3;                                  ! Version Identifier

OS:Material,
  {8408f864-87a4-4d70-b30a-e104a1a8e232}, ! Handle
  1IN Wood Decking,                       ! Name
  MediumSmooth,                           ! Roughness
  0.0254,                                 ! Thickness {m}
  0.1211,                                 ! Conductivity {W/m-K}
  593,                                    ! Density {kg/m3}
  2510,                                   ! Specific Heat {J/kg-K}
  0.9,                                    ! Thermal Absorptance
  0.78,                                   ! Solar Absorptance
  0.78;                                   ! Visible Absorptance

OS:Material,
  {b8b95a15-e766-4d82-b092-693293d5c60d}, ! Handle
  Wood Shingles,                          ! Name
  VeryRough,                              ! Roughness
  0.0178,                                 ! Thickness {m}
  0.115,                                  ! Conductivity {W/m-K}
  513,                                    ! Density {kg/m3}
  1255,                                   ! Specific Heat {J/kg-K}
  0.9,                                    ! Thermal Absorptance
  0.78,                                   ! Solar Absorptance
  0.78;                                   ! Visible Absorptance

OS:Material,
  {a0d91ea8-caf0-44bc-8ce5-9574c74a8b1f}, ! Handle
  Roof Insulation [5],                    ! Name
  MediumRough,                            ! Roughness
  0.286906,                               ! Thickness {m}
  0.049,                                  ! Conductivity {W/m-K}
  265,                                    ! Density {kg/m3}
  836.8,                                  ! Specific Heat {J/kg-K}
  0.9,                                    ! Thermal Absorptance
  0.7,                                    ! Solar Absorptance
  0.7;                                    ! Visible Absorptance

OS:Construction,
  {271438e7-dade-47bd-a849-8e032ccca6fc}, ! Handle
  90.1-2001 Res B10 Roof Attic and Other, ! Name
  ,                                       ! Surface Rendering Name
  {b8b95a15-e766-4d82-b092-693293d5c60d}, ! Layer 1
  {8408f864-87a4-4d70-b30a-e104a1a8e232}, ! Layer 2
  {a0d91ea8-caf0-44bc-8ce5-9574c74a8b1f}, ! Layer 3
  {62956579-6ee4-4e32-a4a1-20f2c245c8d3}; ! Layer 4

OS:Material,
  {62956579-6ee4-4e32-a4a1-20f2c245c8d3}, ! Handle
  1/2IN Gypsum,                           ! Name
  Smooth,                                 ! Roughness
  0.01271,                                ! Thickness {m}
  0.16,                                   ! Conductivity {W/m-K}
  784.9,                                  ! Density {kg/m3}
  830,                                    ! Specific Heat {J/kg-K}
  0.9,                                    ! Thermal Absorptance
  0.92,                                   ! Solar Absorptance
  0.92;                                   ! Visible Absorptance

OS:ComponentCost:LineItem,
  {641a7dd8-51b5-4585-a219-f268123446ce}, ! Handle
  90.1-2001 Res B10 Roof Attic and Other, ! Name
  ,                                       ! Type
  Construction,                           ! Line Item Type
  90.1-2001 Res B10 Roof Attic and Other, ! Item Name
  ,                                       ! Object End Use Key
  ,                                       ! Quantity {dimensionless}
  34.757,                                 ! Material Cost {$}
  CostPerArea;                            ! Material Cost Units

