
OS:Version,
  {8016287e-c1a8-4643-bb72-3fda7ceca2b5}, ! Handle
  0.9.3;                                  ! Version Identifier

OS:Material,
  {8c22c225-73ad-4746-a852-d94404e93ffa}, ! Handle
  Metal Roofing,                          ! Name
  MediumSmooth,                           ! Roughness
  0.001524,                               ! Thickness {m}
  45.006,                                 ! Conductivity {W/m-K}
  7680,                                   ! Density {kg/m3}
  418.4,                                  ! Specific Heat {J/kg-K}
  0.9,                                    ! Thermal Absorptance
  0.7,                                    ! Solar Absorptance
  0.3;                                    ! Visible Absorptance

OS:ComponentCost:LineItem,
  {387a6895-456a-4981-8bc5-1e0edaeab150}, ! Handle
  90.1-2001 Res B1 Roof Metal Building,   ! Name
  ,                                       ! Type
  Construction,                           ! Line Item Type
  90.1-2001 Res B1 Roof Metal Building,   ! Item Name
  ,                                       ! Object End Use Key
  ,                                       ! Quantity {dimensionless}
  40.571,                                 ! Material Cost {$}
  CostPerArea;                            ! Material Cost Units

OS:Construction,
  {eef87447-5417-42ae-b7f0-6ab9ee612d1b}, ! Handle
  90.1-2001 Res B1 Roof Metal Building,   ! Name
  ,                                       ! Surface Rendering Name
  {8c22c225-73ad-4746-a852-d94404e93ffa}, ! Layer 1
  {7cdbb0ad-8a95-49bc-91b4-ee1d41350cc3}; ! Layer 2

OS:Material,
  {7cdbb0ad-8a95-49bc-91b4-ee1d41350cc3}, ! Handle
  Roof Insulation [6],                    ! Name
  MediumRough,                            ! Roughness
  0.147675,                               ! Thickness {m}
  0.049,                                  ! Conductivity {W/m-K}
  265,                                    ! Density {kg/m3}
  836.8,                                  ! Specific Heat {J/kg-K}
  0.9,                                    ! Thermal Absorptance
  0.7,                                    ! Solar Absorptance
  0.7;                                    ! Visible Absorptance

