
OS:Version,
  {7a39a773-baf4-4ff4-bbb2-a60e82f5d28a}, ! Handle
  0.9.3;                                  ! Version Identifier

OS:Material,
  {9d907234-bdf4-420e-82eb-428c9c89a20b}, ! Handle
  GP01 1/2 GYPSUM 1,                      ! Name
  Smooth,                                 ! Roughness
  0.01271,                                ! Thickness {m}
  0.16,                                   ! Conductivity {W/m-K}
  800,                                    ! Density {kg/m3}
  1090,                                   ! Specific Heat {J/kg-K}
  0.9,                                    ! Thermal Absorptance
  0.7,                                    ! Solar Absorptance
  0.5;                                    ! Visible Absorptance

OS:ComponentCost:LineItem,
  {bd2f2bbb-0910-4893-9d51-26acbab92e23}, ! Handle
  90.1-1999 Res B25 Int Wall,             ! Name
  ,                                       ! Type
  Construction,                           ! Line Item Type
  90.1-1999 Res B25 Int Wall,             ! Item Name
  ,                                       ! Object End Use Key
  ,                                       ! Quantity {dimensionless}
  0,                                      ! Material Cost {$}
  CostPerArea;                            ! Material Cost Units

OS:Material,
  {6e26d397-d45b-4442-8f42-8e61bb910251}, ! Handle
  GP01 1/2 GYPSUM,                        ! Name
  Smooth,                                 ! Roughness
  0.01271,                                ! Thickness {m}
  0.16,                                   ! Conductivity {W/m-K}
  800,                                    ! Density {kg/m3}
  1090,                                   ! Specific Heat {J/kg-K}
  0.9,                                    ! Thermal Absorptance
  0.7,                                    ! Solar Absorptance
  0.5;                                    ! Visible Absorptance

OS:Construction,
  {80f3a122-0ea4-4ef8-bc1d-2fe251361c7e}, ! Handle
  90.1-1999 Res B25 Int Wall,             ! Name
  ,                                       ! Surface Rendering Name
  {6e26d397-d45b-4442-8f42-8e61bb910251}, ! Layer 1
  {6e26d397-d45b-4442-8f42-8e61bb910251}; ! Layer 2

