
OS:Version,
  {291ce6ff-3894-4384-965e-caf3ee1e9898}, ! Handle
  0.9.3;                                  ! Version Identifier

OS:Construction,
  {717b226f-b214-44d7-99f3-efc3b4c46b46}, ! Handle
  189.1-2009 Res 6B Roof Metal Building,  ! Name
  ,                                       ! Surface Rendering Name
  {f4018cef-1213-4de6-9ee8-b45f71b8cd33}, ! Layer 1
  {d94ba7e8-0e8c-4b53-9aa3-fd10cda21c3b}; ! Layer 2

OS:Material,
  {f4018cef-1213-4de6-9ee8-b45f71b8cd33}, ! Handle
  Metal Roofing,                          ! Name
  MediumSmooth,                           ! Roughness
  0.001524,                               ! Thickness {m}
  45.006,                                 ! Conductivity {W/m-K}
  7680,                                   ! Density {kg/m3}
  418.4,                                  ! Specific Heat {J/kg-K}
  0.9,                                    ! Thermal Absorptance
  0.7,                                    ! Solar Absorptance
  0.3;                                    ! Visible Absorptance

OS:Material,
  {d94ba7e8-0e8c-4b53-9aa3-fd10cda21c3b}, ! Handle
  Roof Insulation [25],                   ! Name
  MediumRough,                            ! Roughness
  0.263004,                               ! Thickness {m}
  0.049,                                  ! Conductivity {W/m-K}
  265,                                    ! Density {kg/m3}
  836.8,                                  ! Specific Heat {J/kg-K}
  0.9,                                    ! Thermal Absorptance
  0.7,                                    ! Solar Absorptance
  0.7;                                    ! Visible Absorptance

OS:ComponentCost:LineItem,
  {0b20394b-2c21-4aa9-a368-18c78952a6d6}, ! Handle
  189.1-2009 Res 6B Roof Metal Building,  ! Name
  ,                                       ! Type
  Construction,                           ! Line Item Type
  189.1-2009 Res 6B Roof Metal Building,  ! Item Name
  ,                                       ! Object End Use Key
  ,                                       ! Quantity {dimensionless}
  49.47,                                  ! Material Cost {$}
  CostPerArea;                            ! Material Cost Units

