
OS:Version,
  {f2b2f0f9-7cd7-4a30-aa6b-47d9cb2478b3}, ! Handle
  0.9.3;                                  ! Version Identifier

OS:Construction,
  {b493e667-1b99-4d7f-8a6d-4feac192ffb8}, ! Handle
  Title 24-2008 Nonres 15 Ext Slab Unheated - 8in Slab without Carpet, ! Name
  ,                                       ! Surface Rendering Name
  {fae9e2f8-1462-485e-908d-780ed48b6cea}; ! Layer 1

OS:Material,
  {fae9e2f8-1462-485e-908d-780ed48b6cea}, ! Handle
  MAT-CC05 8 HW CONCRETE,                 ! Name
  Rough,                                  ! Roughness
  0.20321,                                ! Thickness {m}
  1.311,                                  ! Conductivity {W/m-K}
  2240,                                   ! Density {kg/m3}
  836.8,                                  ! Specific Heat {J/kg-K}
  0.9,                                    ! Thermal Absorptance
  0.7,                                    ! Solar Absorptance
  0.7;                                    ! Visible Absorptance

OS:ComponentCost:LineItem,
  {4eb260d5-51ce-48a5-a0e4-f141391a19b9}, ! Handle
  Title 24-2008 Nonres 15 Ext Slab Unheated - 8in Slab without Carpet, ! Name
  ,                                       ! Type
  Construction,                           ! Line Item Type
  Title 24-2008 Nonres 15 Ext Slab Unheated - 8in Slab without Carpet, ! Item Name
  ,                                       ! Object End Use Key
  ,                                       ! Quantity {dimensionless}
  45.52,                                  ! Material Cost {$}
  CostPerArea;                            ! Material Cost Units

