
OS:Version,
  {4476b9a6-716f-4774-b530-4de57476c179}, ! Handle
  0.9.3;                                  ! Version Identifier

OS:Material,
  {6911e5f3-0118-4604-9c04-89755a0dd5e3}, ! Handle
  Roof Insulation,                        ! Name
  MediumRough,                            ! Roughness
  0.124958,                               ! Thickness {m}
  0.049,                                  ! Conductivity {W/m-K}
  265,                                    ! Density {kg/m3}
  836.8,                                  ! Specific Heat {J/kg-K}
  0.9,                                    ! Thermal Absorptance
  0.7,                                    ! Solar Absorptance
  0.7;                                    ! Visible Absorptance

OS:Material,
  {22e330ec-bca7-43ae-91d1-b811f92fd17e}, ! Handle
  Metal Decking,                          ! Name
  MediumSmooth,                           ! Roughness
  0.001524,                               ! Thickness {m}
  45.006,                                 ! Conductivity {W/m-K}
  7680,                                   ! Density {kg/m3}
  418.4,                                  ! Specific Heat {J/kg-K}
  0.9,                                    ! Thermal Absorptance
  0.7,                                    ! Solar Absorptance
  0.3;                                    ! Visible Absorptance

OS:Material,
  {6125ac0a-e10e-4a1d-9732-2526380819cf}, ! Handle
  Roof Membrane,                          ! Name
  VeryRough,                              ! Roughness
  0.0095,                                 ! Thickness {m}
  0.16,                                   ! Conductivity {W/m-K}
  1121.29,                                ! Density {kg/m3}
  1460,                                   ! Specific Heat {J/kg-K}
  0.9,                                    ! Thermal Absorptance
  0.7,                                    ! Solar Absorptance
  0.7;                                    ! Visible Absorptance

OS:Construction,
  {b5924067-0cf9-4173-b198-d8e735ef2b09}, ! Handle
  90.1-2001 Res B15 Roof IEAD,            ! Name
  ,                                       ! Surface Rendering Name
  {6125ac0a-e10e-4a1d-9732-2526380819cf}, ! Layer 1
  {6911e5f3-0118-4604-9c04-89755a0dd5e3}, ! Layer 2
  {22e330ec-bca7-43ae-91d1-b811f92fd17e}; ! Layer 3

OS:ComponentCost:LineItem,
  {497d6661-bfc7-4b6e-9046-67a74b7b7820}, ! Handle
  90.1-2001 Res B15 Roof IEAD,            ! Name
  ,                                       ! Type
  Construction,                           ! Line Item Type
  90.1-2001 Res B15 Roof IEAD,            ! Item Name
  ,                                       ! Object End Use Key
  ,                                       ! Quantity {dimensionless}
  49.208,                                 ! Material Cost {$}
  CostPerArea;                            ! Material Cost Units

