
OS:Version,
  {2c029a2b-8a97-41eb-a6ce-23b973d17862}, ! Handle
  0.9.3;                                  ! Version Identifier

OS:Construction,
  {11d0d30e-cb0a-46c5-9ef4-86f37bc06861}, ! Handle
  90.1-2007 Nonres 4B Window Metal framing all other, ! Name
  ,                                       ! Surface Rendering Name
  {33c96d58-83a4-4a03-8603-c7639cfd601b}; ! Layer 1

OS:WindowMaterial:Glazing,
  {33c96d58-83a4-4a03-8603-c7639cfd601b}, ! Handle
  Theoretical Glass [182],                ! Name
  SpectralAverage,                        ! Optical Data Type
  ,                                       ! Window Glass Spectral Data Set Name
  0.003,                                  ! Thickness {m}
  0.39333,                                ! Solar Transmittance at Normal Incidence
  0.55667,                                ! Front Side Solar Reflectance at Normal Incidence
  0.55667,                                ! Back Side Solar Reflectance at Normal Incidence
  0.507883,                               ! Visible Transmittance at Normal Incidence
  0.442117,                               ! Front Side Visible Reflectance at Normal Incidence
  0.442117,                               ! Back Side Visible Reflectance at Normal Incidence
  0,                                      ! Infrared Transmittance at Normal Incidence
  0.9,                                    ! Front Side Infrared Hemispherical Emissivity
  0.9,                                    ! Back Side Infrared Hemispherical Emissivity
  0.0185383;                              ! Conductivity {W/m-K}

OS:ComponentCost:LineItem,
  {70ae3899-a638-46f3-b6cd-92cf1c7e35dd}, ! Handle
  90.1-2007 Nonres 4B Window Metal framing all other, ! Name
  ,                                       ! Type
  Construction,                           ! Line Item Type
  90.1-2007 Nonres 4B Window Metal framing all other, ! Item Name
  ,                                       ! Object End Use Key
  ,                                       ! Quantity {dimensionless}
  512.02,                                 ! Material Cost {$}
  CostPerArea;                            ! Material Cost Units

