
OS:Version,
  {6f83abe1-cd6f-4a10-89a5-7c6b6ca9c643}, ! Handle
  0.9.3;                                  ! Version Identifier

OS:Material,
  {c6c9f053-d371-42da-8909-85e953ecfb82}, ! Handle
  1/2IN Gypsum,                           ! Name
  Smooth,                                 ! Roughness
  0.01271,                                ! Thickness {m}
  0.16,                                   ! Conductivity {W/m-K}
  784.9,                                  ! Density {kg/m3}
  830,                                    ! Specific Heat {J/kg-K}
  0.9,                                    ! Thermal Absorptance
  0.92,                                   ! Solar Absorptance
  0.92;                                   ! Visible Absorptance

OS:Construction,
  {b305a0b9-2122-4122-ad85-c976dec81866}, ! Handle
  AEDG-SmOffice 4B Ext Wall Mass,         ! Name
  ,                                       ! Surface Rendering Name
  {1adb659c-cff7-478a-864e-0c597b7c129f}, ! Layer 1
  {392f5128-0536-411f-9c36-ec5dbd662a31}, ! Layer 2
  {d8afe638-273a-4f71-b58c-6b89d0d748d1}, ! Layer 3
  {c6c9f053-d371-42da-8909-85e953ecfb82}; ! Layer 4

OS:Material,
  {1adb659c-cff7-478a-864e-0c597b7c129f}, ! Handle
  1IN Stucco,                             ! Name
  Smooth,                                 ! Roughness
  0.0253,                                 ! Thickness {m}
  0.6918,                                 ! Conductivity {W/m-K}
  1858,                                   ! Density {kg/m3}
  837,                                    ! Specific Heat {J/kg-K}
  0.9,                                    ! Thermal Absorptance
  0.92,                                   ! Solar Absorptance
  0.92;                                   ! Visible Absorptance

OS:Material,
  {392f5128-0536-411f-9c36-ec5dbd662a31}, ! Handle
  8IN Concrete HW,                        ! Name
  MediumRough,                            ! Roughness
  0.2033,                                 ! Thickness {m}
  1.7296,                                 ! Conductivity {W/m-K}
  2243,                                   ! Density {kg/m3}
  837,                                    ! Specific Heat {J/kg-K}
  0.9,                                    ! Thermal Absorptance
  0.65,                                   ! Solar Absorptance
  0.65;                                   ! Visible Absorptance

OS:Material,
  {d8afe638-273a-4f71-b58c-6b89d0d748d1}, ! Handle
  Wall Insulation [8],                    ! Name
  MediumRough,                            ! Roughness
  0.067929,                               ! Thickness {m}
  0.0432,                                 ! Conductivity {W/m-K}
  91,                                     ! Density {kg/m3}
  837,                                    ! Specific Heat {J/kg-K}
  0.9,                                    ! Thermal Absorptance
  0.5,                                    ! Solar Absorptance
  0.5;                                    ! Visible Absorptance

OS:ComponentCost:LineItem,
  {535a173f-8a53-4c98-b3ab-b09a423abc75}, ! Handle
  AEDG-SmOffice 4B Ext Wall Mass,         ! Name
  ,                                       ! Type
  Construction,                           ! Line Item Type
  AEDG-SmOffice 4B Ext Wall Mass,         ! Item Name
  ,                                       ! Object End Use Key
  ,                                       ! Quantity {dimensionless}
  65.826,                                 ! Material Cost {$}
  CostPerArea;                            ! Material Cost Units

