
OS:Version,
  {d52b239c-8572-4cf3-9a46-058f585f778f}, ! Handle
  0.9.3;                                  ! Version Identifier

OS:Material,
  {cc2a58ae-fe2b-4428-a45c-ca34f300a231}, ! Handle
  1/2IN Gypsum Bottom,                    ! Name
  Smooth,                                 ! Roughness
  0.01271,                                ! Thickness {m}
  0.16,                                   ! Conductivity {W/m-K}
  784.9,                                  ! Density {kg/m3}
  830,                                    ! Specific Heat {J/kg-K}
  0.9,                                    ! Thermal Absorptance
  0.92,                                   ! Solar Absorptance
  0.92;                                   ! Visible Absorptance

OS:Material,
  {8c8849e6-39c4-45b5-b856-b65833c51b7a}, ! Handle
  AtticFloor Insulation [2],              ! Name
  MediumRough,                            ! Roughness
  0.395847,                               ! Thickness {m}
  0.049,                                  ! Conductivity {W/m-K}
  265,                                    ! Density {kg/m3}
  836.8,                                  ! Specific Heat {J/kg-K}
  0.9,                                    ! Thermal Absorptance
  0.7,                                    ! Solar Absorptance
  0.7;                                    ! Visible Absorptance

OS:ComponentCost:LineItem,
  {1627ae15-93f7-4619-8fb9-6f771716fd86}, ! Handle
  90.1-2007 Nonres 8A Attic Floor,        ! Name
  ,                                       ! Type
  Construction,                           ! Line Item Type
  90.1-2007 Nonres 8A Attic Floor,        ! Item Name
  ,                                       ! Object End Use Key
  ,                                       ! Quantity {dimensionless}
  37.12,                                  ! Material Cost {$}
  CostPerArea;                            ! Material Cost Units

OS:Construction,
  {d16311f9-2a5e-4a71-80ea-d5d7ae0812fa}, ! Handle
  90.1-2007 Nonres 8A Attic Floor,        ! Name
  ,                                       ! Surface Rendering Name
  {5d72935e-37a7-42f2-90b2-32db9777cc7e}, ! Layer 1
  {8c8849e6-39c4-45b5-b856-b65833c51b7a}, ! Layer 2
  {cc2a58ae-fe2b-4428-a45c-ca34f300a231}; ! Layer 3

OS:Material,
  {5d72935e-37a7-42f2-90b2-32db9777cc7e}, ! Handle
  1/2IN Gypsum Top,                       ! Name
  Smooth,                                 ! Roughness
  0.01271,                                ! Thickness {m}
  0.16,                                   ! Conductivity {W/m-K}
  784.9,                                  ! Density {kg/m3}
  830,                                    ! Specific Heat {J/kg-K}
  0.9,                                    ! Thermal Absorptance
  0.92,                                   ! Solar Absorptance
  0.92;                                   ! Visible Absorptance

