
OS:Version,
  {724e2d57-c14e-4313-84fc-321ff3c5d750}, ! Handle
  0.9.3;                                  ! Version Identifier

OS:WindowMaterial:Glazing,
  {b4617289-f097-4ad5-9f01-dbbb83e93b51}, ! Handle
  Theoretical Glass [41],                 ! Name
  SpectralAverage,                        ! Optical Data Type
  ,                                       ! Window Glass Spectral Data Set Name
  0.003,                                  ! Thickness {m}
  0.633525,                               ! Solar Transmittance at Normal Incidence
  0.316475,                               ! Front Side Solar Reflectance at Normal Incidence
  0.316475,                               ! Back Side Solar Reflectance at Normal Incidence
  0.706654,                               ! Visible Transmittance at Normal Incidence
  0.243346,                               ! Front Side Visible Reflectance at Normal Incidence
  0.243346,                               ! Back Side Visible Reflectance at Normal Incidence
  0,                                      ! Infrared Transmittance at Normal Incidence
  0.9,                                    ! Front Side Infrared Hemispherical Emissivity
  0.9,                                    ! Back Side Infrared Hemispherical Emissivity
  0.0134755;                              ! Conductivity {W/m-K}

OS:Construction,
  {18198b11-fe7a-4bf7-82a3-d81d30509375}, ! Handle
  90.1-1999 Nonres B20 Window Fixed,      ! Name
  ,                                       ! Surface Rendering Name
  {b4617289-f097-4ad5-9f01-dbbb83e93b51}; ! Layer 1

OS:ComponentCost:LineItem,
  {e51a9b30-2da6-4b5a-ab8f-bbacf1b32334}, ! Handle
  90.1-1999 Nonres B20 Window Fixed,      ! Name
  ,                                       ! Type
  Construction,                           ! Line Item Type
  90.1-1999 Nonres B20 Window Fixed,      ! Item Name
  ,                                       ! Object End Use Key
  ,                                       ! Quantity {dimensionless}
  531.711,                                ! Material Cost {$}
  CostPerArea;                            ! Material Cost Units

