
OS:Version,
  {d9c86290-cd2d-48d9-84fe-dc9c1966ba46}, ! Handle
  0.9.3;                                  ! Version Identifier

OS:Construction,
  {fde7b0d7-8f3c-4162-819c-da08b03bcf73}, ! Handle
  189.1-2009 Res 5B Int Wall,             ! Name
  ,                                       ! Surface Rendering Name
  {33293722-6ff8-4966-a35f-0a76f515cc17}, ! Layer 1
  {33293722-6ff8-4966-a35f-0a76f515cc17}; ! Layer 2

OS:Material,
  {33293722-6ff8-4966-a35f-0a76f515cc17}, ! Handle
  GP01 1/2 GYPSUM,                        ! Name
  Smooth,                                 ! Roughness
  0.01271,                                ! Thickness {m}
  0.16,                                   ! Conductivity {W/m-K}
  800,                                    ! Density {kg/m3}
  1090,                                   ! Specific Heat {J/kg-K}
  0.9,                                    ! Thermal Absorptance
  0.7,                                    ! Solar Absorptance
  0.5;                                    ! Visible Absorptance

OS:ComponentCost:LineItem,
  {3121d80d-2afe-4e58-88a2-4f30a3bfbf66}, ! Handle
  189.1-2009 Res 5B Int Wall,             ! Name
  ,                                       ! Type
  Construction,                           ! Line Item Type
  189.1-2009 Res 5B Int Wall,             ! Item Name
  ,                                       ! Object End Use Key
  ,                                       ! Quantity {dimensionless}
  0,                                      ! Material Cost {$}
  CostPerArea;                            ! Material Cost Units

OS:Material,
  {149a369a-62a0-4044-8d0c-d1c86215fa77}, ! Handle
  GP01 1/2 GYPSUM 1,                      ! Name
  Smooth,                                 ! Roughness
  0.01271,                                ! Thickness {m}
  0.16,                                   ! Conductivity {W/m-K}
  800,                                    ! Density {kg/m3}
  1090,                                   ! Specific Heat {J/kg-K}
  0.9,                                    ! Thermal Absorptance
  0.7,                                    ! Solar Absorptance
  0.5;                                    ! Visible Absorptance

