
OS:Version,
  {f5998798-f33b-4b02-b98d-ff42426e2afc}, ! Handle
  0.9.3;                                  ! Version Identifier

OS:Material,
  {c949ede1-e21f-4a33-be9a-be5c9afc7c16}, ! Handle
  MAT-CC05 8 HW CONCRETE,                 ! Name
  Rough,                                  ! Roughness
  0.20321,                                ! Thickness {m}
  1.311,                                  ! Conductivity {W/m-K}
  2240,                                   ! Density {kg/m3}
  836.8,                                  ! Specific Heat {J/kg-K}
  0.9,                                    ! Thermal Absorptance
  0.7,                                    ! Solar Absorptance
  0.7;                                    ! Visible Absorptance

OS:Construction,
  {3b047c6f-8ec1-4604-862b-a80997b84f25}, ! Handle
  90.1-2004 Res 7A Ext Slab Unheated - 8in Slab with Carpet, ! Name
  ,                                       ! Surface Rendering Name
  {c949ede1-e21f-4a33-be9a-be5c9afc7c16}, ! Layer 1
  {67f5af6b-ec79-4925-8af5-e807015a0e89}; ! Layer 2

OS:Material:NoMass,
  {67f5af6b-ec79-4925-8af5-e807015a0e89}, ! Handle
  CP02 CARPET PAD,                        ! Name
  VeryRough,                              ! Roughness
  0.21648,                                ! Thermal Resistance {m2-K/W}
  0.9,                                    ! Thermal Absorptance
  0.7,                                    ! Solar Absorptance
  0.8;                                    ! Visible Absorptance

OS:ComponentCost:LineItem,
  {caed939e-d191-4142-be86-57cee5eb0fb4}, ! Handle
  90.1-2004 Res 7A Ext Slab Unheated - 8in Slab with Carpet, ! Name
  ,                                       ! Type
  Construction,                           ! Line Item Type
  90.1-2004 Res 7A Ext Slab Unheated - 8in Slab with Carpet, ! Item Name
  ,                                       ! Object End Use Key
  ,                                       ! Quantity {dimensionless}
  45.52,                                  ! Material Cost {$}
  CostPerArea;                            ! Material Cost Units

