
OS:Version,
  {1c207363-b200-4a72-b89e-fa706817d92a}, ! Handle
  0.9.3;                                  ! Version Identifier

OS:Material,
  {affaa162-e04b-455e-8bef-f13d6cd788d7}, ! Handle
  Wall Insulation [120],                  ! Name
  MediumRough,                            ! Roughness
  0.285274,                               ! Thickness {m}
  0.045,                                  ! Conductivity {W/m-K}
  265,                                    ! Density {kg/m3}
  836.8,                                  ! Specific Heat {J/kg-K}
  0.9,                                    ! Thermal Absorptance
  0.7,                                    ! Solar Absorptance
  0.7;                                    ! Visible Absorptance

OS:ComponentCost:LineItem,
  {adf0c52a-fe4c-4b80-a8cf-6400d2bc8e1d}, ! Handle
  90.1 Constructions Ext Wall Steel-Framed R-13.0 + R-31.3 ci, ! Name
  ,                                       ! Type
  Construction,                           ! Line Item Type
  90.1 Constructions Ext Wall Steel-Framed R-13.0 + R-31.3 ci, ! Item Name
  ,                                       ! Object End Use Key
  ,                                       ! Quantity {dimensionless}
  112.534,                                ! Material Cost {$}
  CostPerArea;                            ! Material Cost Units

OS:Material:NoMass,
  {ad00d81e-79d1-45a6-8baf-a9e1ade52523}, ! Handle
  MAT-SHEATH,                             ! Name
  Rough,                                  ! Roughness
  0.36256,                                ! Thermal Resistance {m2-K/W}
  0.9,                                    ! Thermal Absorptance
  0.7,                                    ! Solar Absorptance
  0.7;                                    ! Visible Absorptance

OS:Material,
  {eaf3a96e-915a-4ef7-b580-dac3498baaf7}, ! Handle
  1/2IN Gypsum,                           ! Name
  Smooth,                                 ! Roughness
  0.01271,                                ! Thickness {m}
  0.16,                                   ! Conductivity {W/m-K}
  784.9,                                  ! Density {kg/m3}
  830,                                    ! Specific Heat {J/kg-K}
  0.9,                                    ! Thermal Absorptance
  0.92,                                   ! Solar Absorptance
  0.92;                                   ! Visible Absorptance

OS:Construction,
  {6e0a0b1c-6596-46d3-98e1-5bbacfb834e4}, ! Handle
  90.1 Constructions Ext Wall Steel-Framed R-13.0 + R-31.3 ci, ! Name
  ,                                       ! Surface Rendering Name
  {ad00d81e-79d1-45a6-8baf-a9e1ade52523}, ! Layer 1
  {affaa162-e04b-455e-8bef-f13d6cd788d7}, ! Layer 2
  {eaf3a96e-915a-4ef7-b580-dac3498baaf7}; ! Layer 3

