
OS:Version,
  {8842e249-739a-4f74-bf13-bd220d088de8}, ! Handle
  0.9.3;                                  ! Version Identifier

OS:Construction,
  {cd9b3857-3d50-4e0f-b8ca-9777971876fa}, ! Handle
  90.1-2001 Res B3 Ext Wall Metal Building, ! Name
  ,                                       ! Surface Rendering Name
  {4fbf02e8-49b7-423f-9092-e55fc65cd6fb}, ! Layer 1
  {8abaa277-666e-425c-8b1a-f32e6cf099bf}, ! Layer 2
  {1b23929d-8fbe-4008-87dc-df4c0a6a23c5}; ! Layer 3

OS:Material,
  {4fbf02e8-49b7-423f-9092-e55fc65cd6fb}, ! Handle
  Metal Siding,                           ! Name
  Smooth,                                 ! Roughness
  0.0015,                                 ! Thickness {m}
  44.96,                                  ! Conductivity {W/m-K}
  7688.86,                                ! Density {kg/m3}
  410,                                    ! Specific Heat {J/kg-K}
  0.9,                                    ! Thermal Absorptance
  0.2,                                    ! Solar Absorptance
  0.2;                                    ! Visible Absorptance

OS:Material,
  {8abaa277-666e-425c-8b1a-f32e6cf099bf}, ! Handle
  Wall Insulation,                        ! Name
  MediumRough,                            ! Roughness
  0.0598725,                              ! Thickness {m}
  0.045,                                  ! Conductivity {W/m-K}
  265,                                    ! Density {kg/m3}
  836.8,                                  ! Specific Heat {J/kg-K}
  0.9,                                    ! Thermal Absorptance
  0.7,                                    ! Solar Absorptance
  0.7;                                    ! Visible Absorptance

OS:Material,
  {1b23929d-8fbe-4008-87dc-df4c0a6a23c5}, ! Handle
  1/2IN Gypsum,                           ! Name
  Smooth,                                 ! Roughness
  0.01271,                                ! Thickness {m}
  0.16,                                   ! Conductivity {W/m-K}
  784.9,                                  ! Density {kg/m3}
  830,                                    ! Specific Heat {J/kg-K}
  0.9,                                    ! Thermal Absorptance
  0.92,                                   ! Solar Absorptance
  0.92;                                   ! Visible Absorptance

OS:ComponentCost:LineItem,
  {3ea22d27-4e0c-4015-a0d4-7ff5bf2b2dd0}, ! Handle
  90.1-2001 Res B3 Ext Wall Metal Building, ! Name
  ,                                       ! Type
  Construction,                           ! Line Item Type
  90.1-2001 Res B3 Ext Wall Metal Building, ! Item Name
  ,                                       ! Object End Use Key
  ,                                       ! Quantity {dimensionless}
  98.78,                                  ! Material Cost {$}
  CostPerArea;                            ! Material Cost Units

OS:ComponentData,
  {a352f407-ead5-4a0c-9124-85dfb2cc70fd}, ! Handle
  Component Data 1,                       ! Name
  {0a2dedde-306b-4ce1-a3b8-8f8debc4e3cc}, ! UUID
  {5e5c83ba-5d18-4346-88de-6e6da1b9fd23}, ! Version UUID
  1363981458,                             ! Creation Timestamp
  1363981458,                             ! Version Timestamp
  {cd9b3857-3d50-4e0f-b8ca-9777971876fa}, ! Name of Object 1
  {4fbf02e8-49b7-423f-9092-e55fc65cd6fb}, ! Name of Object 2
  {8abaa277-666e-425c-8b1a-f32e6cf099bf}, ! Name of Object 3
  {1b23929d-8fbe-4008-87dc-df4c0a6a23c5}, ! Name of Object 4
  {3ea22d27-4e0c-4015-a0d4-7ff5bf2b2dd0}; ! Name of Object 5

