
OS:Version,
  {7e332684-71a9-436a-9a3c-e1a058ca58dd}, ! Handle
  0.9.3;                                  ! Version Identifier

OS:Material,
  {381cf13a-dd48-4210-a2f1-7922ff59a8a5}, ! Handle
  Wall Insulation,                        ! Name
  MediumRough,                            ! Roughness
  0.0598725,                              ! Thickness {m}
  0.045,                                  ! Conductivity {W/m-K}
  265,                                    ! Density {kg/m3}
  836.8,                                  ! Specific Heat {J/kg-K}
  0.9,                                    ! Thermal Absorptance
  0.7,                                    ! Solar Absorptance
  0.7;                                    ! Visible Absorptance

OS:Construction,
  {2ff98af3-d4f6-4b3f-9cfa-2ffc89ded4b0}, ! Handle
  90.1-2001 Res B3 Ext Wall Metal Building, ! Name
  ,                                       ! Surface Rendering Name
  {34b57c29-26b8-44e9-bc3b-2cea2ebfa23c}, ! Layer 1
  {381cf13a-dd48-4210-a2f1-7922ff59a8a5}, ! Layer 2
  {fcbad32a-bcc1-48a5-8e9e-40ebb803bdd9}; ! Layer 3

OS:Material,
  {34b57c29-26b8-44e9-bc3b-2cea2ebfa23c}, ! Handle
  Metal Siding,                           ! Name
  Smooth,                                 ! Roughness
  0.0015,                                 ! Thickness {m}
  44.96,                                  ! Conductivity {W/m-K}
  7688.86,                                ! Density {kg/m3}
  410,                                    ! Specific Heat {J/kg-K}
  0.9,                                    ! Thermal Absorptance
  0.2,                                    ! Solar Absorptance
  0.2;                                    ! Visible Absorptance

OS:Material,
  {fcbad32a-bcc1-48a5-8e9e-40ebb803bdd9}, ! Handle
  1/2IN Gypsum,                           ! Name
  Smooth,                                 ! Roughness
  0.01271,                                ! Thickness {m}
  0.16,                                   ! Conductivity {W/m-K}
  784.9,                                  ! Density {kg/m3}
  830,                                    ! Specific Heat {J/kg-K}
  0.9,                                    ! Thermal Absorptance
  0.92,                                   ! Solar Absorptance
  0.92;                                   ! Visible Absorptance

OS:ComponentCost:LineItem,
  {1cdc0ec6-fb39-43ac-8bda-f600ec83e57d}, ! Handle
  90.1-2001 Res B3 Ext Wall Metal Building, ! Name
  ,                                       ! Type
  Construction,                           ! Line Item Type
  90.1-2001 Res B3 Ext Wall Metal Building, ! Item Name
  ,                                       ! Object End Use Key
  ,                                       ! Quantity {dimensionless}
  98.78,                                  ! Material Cost {$}
  CostPerArea;                            ! Material Cost Units

