
OS:Version,
  {6f15dd8e-562a-45a4-b556-ce80c773b79f}, ! Handle
  0.9.3;                                  ! Version Identifier

OS:Construction,
  {d8581fcc-586f-40f7-a3ea-3b3603b96532}, ! Handle
  90.1-2001 Nonres B24 Ext Wall Wood-Framed and Other, ! Name
  ,                                       ! Surface Rendering Name
  {d061f405-1b8b-4721-9422-af89422e8b9f}, ! Layer 1
  {bd4adfaa-4b3a-44e7-b9e8-99da06a80907}, ! Layer 2
  {65edca1f-64c7-4849-93c2-86118add0a54}; ! Layer 3

OS:Material,
  {d061f405-1b8b-4721-9422-af89422e8b9f}, ! Handle
  Wood Siding,                            ! Name
  MediumSmooth,                           ! Roughness
  0.01,                                   ! Thickness {m}
  0.11,                                   ! Conductivity {W/m-K}
  544.62,                                 ! Density {kg/m3}
  1210,                                   ! Specific Heat {J/kg-K}
  0.9,                                    ! Thermal Absorptance
  0.78,                                   ! Solar Absorptance
  0.78;                                   ! Visible Absorptance

OS:Material,
  {bd4adfaa-4b3a-44e7-b9e8-99da06a80907}, ! Handle
  Wall Insulation [13],                   ! Name
  MediumRough,                            ! Roughness
  0.140713,                               ! Thickness {m}
  0.045,                                  ! Conductivity {W/m-K}
  265,                                    ! Density {kg/m3}
  836.8,                                  ! Specific Heat {J/kg-K}
  0.9,                                    ! Thermal Absorptance
  0.7,                                    ! Solar Absorptance
  0.7;                                    ! Visible Absorptance

OS:Material,
  {65edca1f-64c7-4849-93c2-86118add0a54}, ! Handle
  1/2IN Gypsum,                           ! Name
  Smooth,                                 ! Roughness
  0.01271,                                ! Thickness {m}
  0.16,                                   ! Conductivity {W/m-K}
  784.9,                                  ! Density {kg/m3}
  830,                                    ! Specific Heat {J/kg-K}
  0.9,                                    ! Thermal Absorptance
  0.92,                                   ! Solar Absorptance
  0.92;                                   ! Visible Absorptance

OS:ComponentCost:LineItem,
  {19e8ce89-abc2-4062-87f0-abcbd54d4cc0}, ! Handle
  90.1-2001 Nonres B24 Ext Wall Wood-Framed and Other, ! Name
  ,                                       ! Type
  Construction,                           ! Line Item Type
  90.1-2001 Nonres B24 Ext Wall Wood-Framed and Other, ! Item Name
  ,                                       ! Object End Use Key
  ,                                       ! Quantity {dimensionless}
  80.638,                                 ! Material Cost {$}
  CostPerArea;                            ! Material Cost Units

OS:ComponentData,
  {d4c5e744-3b2c-4fdd-8617-7d7444229169}, ! Handle
  Component Data 1,                       ! Name
  {28fdf120-4104-4043-9222-755b53224596}, ! UUID
  {3f0ba7b4-ec81-4f4b-93f7-5de257fadd00}, ! Version UUID
  1363981426,                             ! Creation Timestamp
  1363981426,                             ! Version Timestamp
  {d8581fcc-586f-40f7-a3ea-3b3603b96532}, ! Name of Object 1
  {d061f405-1b8b-4721-9422-af89422e8b9f}, ! Name of Object 2
  {bd4adfaa-4b3a-44e7-b9e8-99da06a80907}, ! Name of Object 3
  {65edca1f-64c7-4849-93c2-86118add0a54}, ! Name of Object 4
  {19e8ce89-abc2-4062-87f0-abcbd54d4cc0}; ! Name of Object 5

