
OS:Version,
  {7eb5c1c5-9bc9-48f3-933b-5e1a9dd5e000}, ! Handle
  0.9.3;                                  ! Version Identifier

OS:ComponentCost:LineItem,
  {78cc78ce-91b3-4828-8e2e-f462ee46d3cb}, ! Handle
  90.1-2001 Res B7 Roof IEAD,             ! Name
  ,                                       ! Type
  Construction,                           ! Line Item Type
  90.1-2001 Res B7 Roof IEAD,             ! Item Name
  ,                                       ! Object End Use Key
  ,                                       ! Quantity {dimensionless}
  49.208,                                 ! Material Cost {$}
  CostPerArea;                            ! Material Cost Units

OS:Material,
  {c425cab0-78b0-4c45-bb52-329d4397d6eb}, ! Handle
  Metal Decking,                          ! Name
  MediumSmooth,                           ! Roughness
  0.001524,                               ! Thickness {m}
  45.006,                                 ! Conductivity {W/m-K}
  7680,                                   ! Density {kg/m3}
  418.4,                                  ! Specific Heat {J/kg-K}
  0.9,                                    ! Thermal Absorptance
  0.7,                                    ! Solar Absorptance
  0.3;                                    ! Visible Absorptance

OS:Construction,
  {69956e61-a78a-4a2f-86e2-ca28d985602c}, ! Handle
  90.1-2001 Res B7 Roof IEAD,             ! Name
  ,                                       ! Surface Rendering Name
  {44fcd6bb-ea44-4fe7-96f6-815ba1c1ce1b}, ! Layer 1
  {4174bf27-50d6-424c-84cc-f051bd521010}, ! Layer 2
  {c425cab0-78b0-4c45-bb52-329d4397d6eb}; ! Layer 3

OS:Material,
  {44fcd6bb-ea44-4fe7-96f6-815ba1c1ce1b}, ! Handle
  Roof Membrane,                          ! Name
  VeryRough,                              ! Roughness
  0.0095,                                 ! Thickness {m}
  0.16,                                   ! Conductivity {W/m-K}
  1121.29,                                ! Density {kg/m3}
  1460,                                   ! Specific Heat {J/kg-K}
  0.9,                                    ! Thermal Absorptance
  0.7,                                    ! Solar Absorptance
  0.7;                                    ! Visible Absorptance

OS:Material,
  {4174bf27-50d6-424c-84cc-f051bd521010}, ! Handle
  Roof Insulation,                        ! Name
  MediumRough,                            ! Roughness
  0.124958,                               ! Thickness {m}
  0.049,                                  ! Conductivity {W/m-K}
  265,                                    ! Density {kg/m3}
  836.8,                                  ! Specific Heat {J/kg-K}
  0.9,                                    ! Thermal Absorptance
  0.7,                                    ! Solar Absorptance
  0.7;                                    ! Visible Absorptance

