
OS:Version,
  {49d704b7-0a11-43a9-b4b2-1171458d1db6}, ! Handle
  0.9.3;                                  ! Version Identifier

OS:Construction,
  {8fee3932-52ad-4c38-8471-fd8569a3c20d}, ! Handle
  90.1-2001 Res B7 Roof IEAD,             ! Name
  ,                                       ! Surface Rendering Name
  {f1665b2c-f69b-414d-9cac-2679ee333786}, ! Layer 1
  {366123f6-0d5f-456e-8c73-e3acdc49efb7}, ! Layer 2
  {e6b2f493-f733-46d1-be54-cd620064ea5a}; ! Layer 3

OS:Material,
  {f1665b2c-f69b-414d-9cac-2679ee333786}, ! Handle
  Roof Membrane,                          ! Name
  VeryRough,                              ! Roughness
  0.0095,                                 ! Thickness {m}
  0.16,                                   ! Conductivity {W/m-K}
  1121.29,                                ! Density {kg/m3}
  1460,                                   ! Specific Heat {J/kg-K}
  0.9,                                    ! Thermal Absorptance
  0.7,                                    ! Solar Absorptance
  0.7;                                    ! Visible Absorptance

OS:Material,
  {366123f6-0d5f-456e-8c73-e3acdc49efb7}, ! Handle
  Roof Insulation,                        ! Name
  MediumRough,                            ! Roughness
  0.124958,                               ! Thickness {m}
  0.049,                                  ! Conductivity {W/m-K}
  265,                                    ! Density {kg/m3}
  836.8,                                  ! Specific Heat {J/kg-K}
  0.9,                                    ! Thermal Absorptance
  0.7,                                    ! Solar Absorptance
  0.7;                                    ! Visible Absorptance

OS:Material,
  {e6b2f493-f733-46d1-be54-cd620064ea5a}, ! Handle
  Metal Decking,                          ! Name
  MediumSmooth,                           ! Roughness
  0.001524,                               ! Thickness {m}
  45.006,                                 ! Conductivity {W/m-K}
  7680,                                   ! Density {kg/m3}
  418.4,                                  ! Specific Heat {J/kg-K}
  0.9,                                    ! Thermal Absorptance
  0.7,                                    ! Solar Absorptance
  0.3;                                    ! Visible Absorptance

OS:ComponentCost:LineItem,
  {451ae12d-5f39-4273-8383-e0012e475d40}, ! Handle
  90.1-2001 Res B7 Roof IEAD,             ! Name
  ,                                       ! Type
  Construction,                           ! Line Item Type
  90.1-2001 Res B7 Roof IEAD,             ! Item Name
  ,                                       ! Object End Use Key
  ,                                       ! Quantity {dimensionless}
  49.208,                                 ! Material Cost {$}
  CostPerArea;                            ! Material Cost Units

OS:ComponentData,
  {9f96a094-96e5-45ed-a29f-d4c9065f21aa}, ! Handle
  Component Data 1,                       ! Name
  {1a5f4a1f-9894-48b8-ae8b-f31ea40b1883}, ! UUID
  {c6b77633-2958-4f22-96a1-1b0d82a1c4a9}, ! Version UUID
  1363981482,                             ! Creation Timestamp
  1363981482,                             ! Version Timestamp
  {8fee3932-52ad-4c38-8471-fd8569a3c20d}, ! Name of Object 1
  {f1665b2c-f69b-414d-9cac-2679ee333786}, ! Name of Object 2
  {366123f6-0d5f-456e-8c73-e3acdc49efb7}, ! Name of Object 3
  {e6b2f493-f733-46d1-be54-cd620064ea5a}, ! Name of Object 4
  {451ae12d-5f39-4273-8383-e0012e475d40}; ! Name of Object 5

