
OS:Version,
  {e1aeadda-c208-4b74-88ac-9fd02b3c8d2d}, ! Handle
  0.9.3;                                  ! Version Identifier

OS:Construction,
  {a2ded4ca-f25a-4e0a-8084-2f6f4d61e304}, ! Handle
  Title 24-2008 Nonres 6 Window Fixed,    ! Name
  ,                                       ! Surface Rendering Name
  {5b51587f-3c4b-486f-8cb7-57ac2ebb8799}; ! Layer 1

OS:WindowMaterial:Glazing,
  {5b51587f-3c4b-486f-8cb7-57ac2ebb8799}, ! Handle
  Theoretical Glass [683],                ! Name
  SpectralAverage,                        ! Optical Data Type
  ,                                       ! Window Glass Spectral Data Set Name
  0.003,                                  ! Thickness {m}
  0.331198,                               ! Solar Transmittance at Normal Incidence
  0.618802,                               ! Front Side Solar Reflectance at Normal Incidence
  0.618802,                               ! Back Side Solar Reflectance at Normal Incidence
  0.34081,                                ! Visible Transmittance at Normal Incidence
  0.60919,                                ! Front Side Visible Reflectance at Normal Incidence
  0.60919,                                ! Back Side Visible Reflectance at Normal Incidence
  0,                                      ! Infrared Transmittance at Normal Incidence
  0.9,                                    ! Front Side Infrared Hemispherical Emissivity
  0.9,                                    ! Back Side Infrared Hemispherical Emissivity
  0.0406315;                              ! Conductivity {W/m-K}

OS:ComponentCost:LineItem,
  {493ea3d6-6be1-4ccc-aae6-8d4c49a01827}, ! Handle
  Title 24-2008 Nonres 6 Window Fixed,    ! Name
  ,                                       ! Type
  Construction,                           ! Line Item Type
  Title 24-2008 Nonres 6 Window Fixed,    ! Item Name
  ,                                       ! Object End Use Key
  ,                                       ! Quantity {dimensionless}
  523.103,                                ! Material Cost {$}
  CostPerArea;                            ! Material Cost Units

