
OS:Version,
  {3ff092f1-df12-40af-8b96-3f6750830c06}, ! Handle
  0.9.3;                                  ! Version Identifier

OS:Construction,
  {2b0ef88c-32c6-449b-9df0-5f5b7bfdc3e5}, ! Handle
  90.1-1999 Res B2 Ext Slab Unheated - 4in Slab with Carpet, ! Name
  ,                                       ! Surface Rendering Name
  {e3a52570-8485-4285-97d6-cc7f10fa7e40}, ! Layer 1
  {ee057dcb-e10d-4ac1-b064-9bf90593813b}; ! Layer 2

OS:Material,
  {e3a52570-8485-4285-97d6-cc7f10fa7e40}, ! Handle
  MAT-CC05 4 HW CONCRETE,                 ! Name
  Rough,                                  ! Roughness
  0.1016,                                 ! Thickness {m}
  1.311,                                  ! Conductivity {W/m-K}
  2240,                                   ! Density {kg/m3}
  836.8,                                  ! Specific Heat {J/kg-K}
  0.9,                                    ! Thermal Absorptance
  0.7,                                    ! Solar Absorptance
  0.7;                                    ! Visible Absorptance

OS:Material:NoMass,
  {ee057dcb-e10d-4ac1-b064-9bf90593813b}, ! Handle
  CP02 CARPET PAD,                        ! Name
  VeryRough,                              ! Roughness
  0.21648,                                ! Thermal Resistance {m2-K/W}
  0.9,                                    ! Thermal Absorptance
  0.7,                                    ! Solar Absorptance
  0.8;                                    ! Visible Absorptance

OS:ComponentCost:LineItem,
  {f59dc124-3386-4a20-a2ba-912434d538dd}, ! Handle
  90.1-1999 Res B2 Ext Slab Unheated - 4in Slab with Carpet, ! Name
  ,                                       ! Type
  Construction,                           ! Line Item Type
  90.1-1999 Res B2 Ext Slab Unheated - 4in Slab with Carpet, ! Item Name
  ,                                       ! Object End Use Key
  ,                                       ! Quantity {dimensionless}
  45.52,                                  ! Material Cost {$}
  CostPerArea;                            ! Material Cost Units

