
OS:Version,
  {c5c6ad57-18a9-4792-a566-40b1bbcac9dd}, ! Handle
  0.9.3;                                  ! Version Identifier

OS:Construction,
  {101a4116-d9c7-46e5-8cd3-3a3a1e9e40f6}, ! Handle
  90.1-2004 Nonres 7A Ext Slab Unheated - 8in Slab without Carpet, ! Name
  ,                                       ! Surface Rendering Name
  {8c6c56a7-ab2c-43ad-a6f9-9082c1f54a33}; ! Layer 1

OS:Material,
  {8c6c56a7-ab2c-43ad-a6f9-9082c1f54a33}, ! Handle
  MAT-CC05 8 HW CONCRETE,                 ! Name
  Rough,                                  ! Roughness
  0.20321,                                ! Thickness {m}
  1.311,                                  ! Conductivity {W/m-K}
  2240,                                   ! Density {kg/m3}
  836.8,                                  ! Specific Heat {J/kg-K}
  0.9,                                    ! Thermal Absorptance
  0.7,                                    ! Solar Absorptance
  0.7;                                    ! Visible Absorptance

OS:ComponentCost:LineItem,
  {4ac9efba-1a03-4e76-b374-2e1de68b265c}, ! Handle
  90.1-2004 Nonres 7A Ext Slab Unheated - 8in Slab without Carpet, ! Name
  ,                                       ! Type
  Construction,                           ! Line Item Type
  90.1-2004 Nonres 7A Ext Slab Unheated - 8in Slab without Carpet, ! Item Name
  ,                                       ! Object End Use Key
  ,                                       ! Quantity {dimensionless}
  45.52,                                  ! Material Cost {$}
  CostPerArea;                            ! Material Cost Units

OS:ComponentData,
  {c781eed5-2a89-4ca7-9c36-2c78eab75fdf}, ! Handle
  Component Data 1,                       ! Name
  {a92b1132-cedd-483c-acb0-763331d5368a}, ! UUID
  {03687083-39a4-404b-a2dc-77dfcacf0cf6}, ! Version UUID
  1363981695,                             ! Creation Timestamp
  1363981695,                             ! Version Timestamp
  {101a4116-d9c7-46e5-8cd3-3a3a1e9e40f6}, ! Name of Object 1
  {8c6c56a7-ab2c-43ad-a6f9-9082c1f54a33}, ! Name of Object 2
  {4ac9efba-1a03-4e76-b374-2e1de68b265c}; ! Name of Object 3

