
OS:Version,
  {b0604d2d-202a-4ba9-9ecb-40da9f8f07ae}, ! Handle
  0.9.3;                                  ! Version Identifier

OS:Material,
  {9118e21c-5610-4b58-9a40-543ecfe9b96b}, ! Handle
  MAT-CC05 8 HW CONCRETE,                 ! Name
  Rough,                                  ! Roughness
  0.20321,                                ! Thickness {m}
  1.311,                                  ! Conductivity {W/m-K}
  2240,                                   ! Density {kg/m3}
  836.8,                                  ! Specific Heat {J/kg-K}
  0.9,                                    ! Thermal Absorptance
  0.7,                                    ! Solar Absorptance
  0.7;                                    ! Visible Absorptance

OS:Construction,
  {d38d29d9-dd0c-4f81-a6f5-97b2535080b8}, ! Handle
  90.1-2004 Nonres 7A Ext Slab Unheated - 8in Slab without Carpet, ! Name
  ,                                       ! Surface Rendering Name
  {9118e21c-5610-4b58-9a40-543ecfe9b96b}; ! Layer 1

OS:ComponentCost:LineItem,
  {6a77360c-cbc5-457f-99a2-296ce8a67879}, ! Handle
  90.1-2004 Nonres 7A Ext Slab Unheated - 8in Slab without Carpet, ! Name
  ,                                       ! Type
  Construction,                           ! Line Item Type
  90.1-2004 Nonres 7A Ext Slab Unheated - 8in Slab without Carpet, ! Item Name
  ,                                       ! Object End Use Key
  ,                                       ! Quantity {dimensionless}
  45.52,                                  ! Material Cost {$}
  CostPerArea;                            ! Material Cost Units

