
OS:Version,
  {f2c2cd63-afd5-4dd0-b511-2164b80e162e}, ! Handle
  0.9.3;                                  ! Version Identifier

OS:Construction,
  {275f0926-8c43-4b21-a72b-5f98c5790b8a}, ! Handle
  90.1-2004 Res 2A Ext Slab Unheated - 8in Slab with Carpet, ! Name
  ,                                       ! Surface Rendering Name
  {5e66a209-e348-477f-9977-6327d02fbfa1}, ! Layer 1
  {fe35a5b2-e46d-407b-a7d0-b1a37004fe36}; ! Layer 2

OS:Material,
  {5e66a209-e348-477f-9977-6327d02fbfa1}, ! Handle
  MAT-CC05 8 HW CONCRETE,                 ! Name
  Rough,                                  ! Roughness
  0.20321,                                ! Thickness {m}
  1.311,                                  ! Conductivity {W/m-K}
  2240,                                   ! Density {kg/m3}
  836.8,                                  ! Specific Heat {J/kg-K}
  0.9,                                    ! Thermal Absorptance
  0.7,                                    ! Solar Absorptance
  0.7;                                    ! Visible Absorptance

OS:Material:NoMass,
  {fe35a5b2-e46d-407b-a7d0-b1a37004fe36}, ! Handle
  CP02 CARPET PAD,                        ! Name
  VeryRough,                              ! Roughness
  0.21648,                                ! Thermal Resistance {m2-K/W}
  0.9,                                    ! Thermal Absorptance
  0.7,                                    ! Solar Absorptance
  0.8;                                    ! Visible Absorptance

OS:ComponentCost:LineItem,
  {7e6e2153-e0eb-420c-9b6c-6fb1aa7e5b5d}, ! Handle
  90.1-2004 Res 2A Ext Slab Unheated - 8in Slab with Carpet, ! Name
  ,                                       ! Type
  Construction,                           ! Line Item Type
  90.1-2004 Res 2A Ext Slab Unheated - 8in Slab with Carpet, ! Item Name
  ,                                       ! Object End Use Key
  ,                                       ! Quantity {dimensionless}
  45.52,                                  ! Material Cost {$}
  CostPerArea;                            ! Material Cost Units

OS:ComponentData,
  {361e366b-ed2a-494f-a53a-bceb0894e48d}, ! Handle
  Component Data 1,                       ! Name
  {e4d0f87c-61ee-41b8-a82f-555d3483bdc0}, ! UUID
  {65bde265-dd07-4945-bb74-7fc9d3062431}, ! Version UUID
  1363981718,                             ! Creation Timestamp
  1363981718,                             ! Version Timestamp
  {275f0926-8c43-4b21-a72b-5f98c5790b8a}, ! Name of Object 1
  {5e66a209-e348-477f-9977-6327d02fbfa1}, ! Name of Object 2
  {fe35a5b2-e46d-407b-a7d0-b1a37004fe36}, ! Name of Object 3
  {7e6e2153-e0eb-420c-9b6c-6fb1aa7e5b5d}; ! Name of Object 4

