
OS:Version,
  {cfe9414e-98f0-40c2-9901-96b767a12943}, ! Handle
  0.9.3;                                  ! Version Identifier

OS:Material,
  {e7777af7-f7b8-489e-aca1-d472e90ddf1c}, ! Handle
  1/2IN Gypsum,                           ! Name
  Smooth,                                 ! Roughness
  0.01271,                                ! Thickness {m}
  0.16,                                   ! Conductivity {W/m-K}
  784.9,                                  ! Density {kg/m3}
  830,                                    ! Specific Heat {J/kg-K}
  0.9,                                    ! Thermal Absorptance
  0.92,                                   ! Solar Absorptance
  0.92;                                   ! Visible Absorptance

OS:Material,
  {3e4c82b9-8c54-48f5-89ab-447430dc3e72}, ! Handle
  Wood Siding,                            ! Name
  MediumSmooth,                           ! Roughness
  0.01,                                   ! Thickness {m}
  0.11,                                   ! Conductivity {W/m-K}
  544.62,                                 ! Density {kg/m3}
  1210,                                   ! Specific Heat {J/kg-K}
  0.9,                                    ! Thermal Absorptance
  0.78,                                   ! Solar Absorptance
  0.78;                                   ! Visible Absorptance

OS:Construction,
  {9514bb04-bf18-4cc8-8392-802053ae9ee8}, ! Handle
  90.1-2001 Res B12 Ext Wall Wood-Framed and Other, ! Name
  ,                                       ! Surface Rendering Name
  {3e4c82b9-8c54-48f5-89ab-447430dc3e72}, ! Layer 1
  {186873de-3612-40e2-b0fd-ea4c8f2431ae}, ! Layer 2
  {e7777af7-f7b8-489e-aca1-d472e90ddf1c}; ! Layer 3

OS:Material,
  {186873de-3612-40e2-b0fd-ea4c8f2431ae}, ! Handle
  Wall Insulation [2],                    ! Name
  MediumRough,                            ! Roughness
  0.0746874,                              ! Thickness {m}
  0.045,                                  ! Conductivity {W/m-K}
  265,                                    ! Density {kg/m3}
  836.8,                                  ! Specific Heat {J/kg-K}
  0.9,                                    ! Thermal Absorptance
  0.7,                                    ! Solar Absorptance
  0.7;                                    ! Visible Absorptance

OS:ComponentCost:LineItem,
  {8619bbb2-e052-4c06-ac31-fdc8408c88a7}, ! Handle
  90.1-2001 Res B12 Ext Wall Wood-Framed and Other, ! Name
  ,                                       ! Type
  Construction,                           ! Line Item Type
  90.1-2001 Res B12 Ext Wall Wood-Framed and Other, ! Item Name
  ,                                       ! Object End Use Key
  ,                                       ! Quantity {dimensionless}
  73.056,                                 ! Material Cost {$}
  CostPerArea;                            ! Material Cost Units

