
OS:Version,
  {43b87366-f644-45ba-be5a-f5aa4ea8d1df}, ! Handle
  0.9.3;                                  ! Version Identifier

OS:Construction,
  {32da3459-c794-4e26-9c8d-aa8dc66a820b}, ! Handle
  Title 24-2008 Nonres 4 Ext Wall Wood-Framed and Other, ! Name
  ,                                       ! Surface Rendering Name
  {e8a19bf1-0889-4298-b1c5-ea27b2724bce}, ! Layer 1
  {0b0313de-5190-45ee-9021-7bd4334ca9fa}, ! Layer 2
  {97aa3aff-625d-4df6-9ed2-9bfe0d4800d7}; ! Layer 3

OS:Material,
  {e8a19bf1-0889-4298-b1c5-ea27b2724bce}, ! Handle
  Wood Siding,                            ! Name
  MediumSmooth,                           ! Roughness
  0.01,                                   ! Thickness {m}
  0.11,                                   ! Conductivity {W/m-K}
  544.62,                                 ! Density {kg/m3}
  1210,                                   ! Specific Heat {J/kg-K}
  0.9,                                    ! Thermal Absorptance
  0.78,                                   ! Solar Absorptance
  0.78;                                   ! Visible Absorptance

OS:Material,
  {0b0313de-5190-45ee-9021-7bd4334ca9fa}, ! Handle
  Wall Insulation [159],                  ! Name
  MediumRough,                            ! Roughness
  0.0812,                                 ! Thickness {m}
  0.045,                                  ! Conductivity {W/m-K}
  265,                                    ! Density {kg/m3}
  836.8,                                  ! Specific Heat {J/kg-K}
  0.9,                                    ! Thermal Absorptance
  0.7,                                    ! Solar Absorptance
  0.7;                                    ! Visible Absorptance

OS:Material,
  {97aa3aff-625d-4df6-9ed2-9bfe0d4800d7}, ! Handle
  1/2IN Gypsum,                           ! Name
  Smooth,                                 ! Roughness
  0.01271,                                ! Thickness {m}
  0.16,                                   ! Conductivity {W/m-K}
  784.9,                                  ! Density {kg/m3}
  830,                                    ! Specific Heat {J/kg-K}
  0.9,                                    ! Thermal Absorptance
  0.92,                                   ! Solar Absorptance
  0.92;                                   ! Visible Absorptance

OS:ComponentCost:LineItem,
  {911d2d2b-ddec-41bb-ae2e-da33eef921c3}, ! Handle
  Title 24-2008 Nonres 4 Ext Wall Wood-Framed and Other, ! Name
  ,                                       ! Type
  Construction,                           ! Line Item Type
  Title 24-2008 Nonres 4 Ext Wall Wood-Framed and Other, ! Item Name
  ,                                       ! Object End Use Key
  ,                                       ! Quantity {dimensionless}
  140.526,                                ! Material Cost {$}
  CostPerArea;                            ! Material Cost Units

OS:ComponentData,
  {258efb03-4b8f-4a4d-a22b-1cfeb54d8b41}, ! Handle
  Component Data 1,                       ! Name
  {5d29c9c1-5b5a-4906-b695-723f4be7c540}, ! UUID
  {bda9071c-6e23-4b76-995f-35bcc62d7739}, ! Version UUID
  1363982011,                             ! Creation Timestamp
  1363982011,                             ! Version Timestamp
  {32da3459-c794-4e26-9c8d-aa8dc66a820b}, ! Name of Object 1
  {e8a19bf1-0889-4298-b1c5-ea27b2724bce}, ! Name of Object 2
  {0b0313de-5190-45ee-9021-7bd4334ca9fa}, ! Name of Object 3
  {97aa3aff-625d-4df6-9ed2-9bfe0d4800d7}, ! Name of Object 4
  {911d2d2b-ddec-41bb-ae2e-da33eef921c3}; ! Name of Object 5

