
OS:Version,
  {93318479-31d6-4274-80a3-2b95bcf6adf3}, ! Handle
  0.9.3;                                  ! Version Identifier

OS:Material,
  {02d14944-0273-440d-ac8c-fa8774849782}, ! Handle
  Wall Insulation [159],                  ! Name
  MediumRough,                            ! Roughness
  0.0812,                                 ! Thickness {m}
  0.045,                                  ! Conductivity {W/m-K}
  265,                                    ! Density {kg/m3}
  836.8,                                  ! Specific Heat {J/kg-K}
  0.9,                                    ! Thermal Absorptance
  0.7,                                    ! Solar Absorptance
  0.7;                                    ! Visible Absorptance

OS:ComponentCost:LineItem,
  {db06f761-c57e-40e8-bfc4-8dbfe7e1910d}, ! Handle
  Title 24-2008 Nonres 4 Ext Wall Wood-Framed and Other, ! Name
  ,                                       ! Type
  Construction,                           ! Line Item Type
  Title 24-2008 Nonres 4 Ext Wall Wood-Framed and Other, ! Item Name
  ,                                       ! Object End Use Key
  ,                                       ! Quantity {dimensionless}
  140.526,                                ! Material Cost {$}
  CostPerArea;                            ! Material Cost Units

OS:Construction,
  {f4ef2331-6ffc-44c0-9862-e3b865322acb}, ! Handle
  Title 24-2008 Nonres 4 Ext Wall Wood-Framed and Other, ! Name
  ,                                       ! Surface Rendering Name
  {1e87d786-e6a6-4ea4-a256-51d0bd724223}, ! Layer 1
  {02d14944-0273-440d-ac8c-fa8774849782}, ! Layer 2
  {9e5a868f-1058-4874-8ec3-110a3d6df8d5}; ! Layer 3

OS:Material,
  {1e87d786-e6a6-4ea4-a256-51d0bd724223}, ! Handle
  Wood Siding,                            ! Name
  MediumSmooth,                           ! Roughness
  0.01,                                   ! Thickness {m}
  0.11,                                   ! Conductivity {W/m-K}
  544.62,                                 ! Density {kg/m3}
  1210,                                   ! Specific Heat {J/kg-K}
  0.9,                                    ! Thermal Absorptance
  0.78,                                   ! Solar Absorptance
  0.78;                                   ! Visible Absorptance

OS:Material,
  {9e5a868f-1058-4874-8ec3-110a3d6df8d5}, ! Handle
  1/2IN Gypsum,                           ! Name
  Smooth,                                 ! Roughness
  0.01271,                                ! Thickness {m}
  0.16,                                   ! Conductivity {W/m-K}
  784.9,                                  ! Density {kg/m3}
  830,                                    ! Specific Heat {J/kg-K}
  0.9,                                    ! Thermal Absorptance
  0.92,                                   ! Solar Absorptance
  0.92;                                   ! Visible Absorptance

