
OS:Version,
  {71ce80df-9e11-4c68-813f-ad3acbb79da0}, ! Handle
  0.9.3;                                  ! Version Identifier

OS:Construction,
  {146ffa24-1427-4c49-8f62-a8086fdbe876}, ! Handle
  90.1-2001 Res B26 Roof Metal Building,  ! Name
  ,                                       ! Surface Rendering Name
  {d3e17777-1c7e-4236-b9de-bdf8d0fa2b37}, ! Layer 1
  {f8d6e702-8cec-45ca-bb47-50cf16373a61}; ! Layer 2

OS:Material,
  {d3e17777-1c7e-4236-b9de-bdf8d0fa2b37}, ! Handle
  Metal Roofing,                          ! Name
  MediumSmooth,                           ! Roughness
  0.001524,                               ! Thickness {m}
  45.006,                                 ! Conductivity {W/m-K}
  7680,                                   ! Density {kg/m3}
  418.4,                                  ! Specific Heat {J/kg-K}
  0.9,                                    ! Thermal Absorptance
  0.7,                                    ! Solar Absorptance
  0.3;                                    ! Visible Absorptance

OS:Material,
  {f8d6e702-8cec-45ca-bb47-50cf16373a61}, ! Handle
  Roof Insulation [10],                   ! Name
  MediumRough,                            ! Roughness
  0.174366,                               ! Thickness {m}
  0.049,                                  ! Conductivity {W/m-K}
  265,                                    ! Density {kg/m3}
  836.8,                                  ! Specific Heat {J/kg-K}
  0.9,                                    ! Thermal Absorptance
  0.7,                                    ! Solar Absorptance
  0.7;                                    ! Visible Absorptance

OS:ComponentCost:LineItem,
  {ec48cc22-6fa6-4aec-a78f-ce9e2ff55cbd}, ! Handle
  90.1-2001 Res B26 Roof Metal Building,  ! Name
  ,                                       ! Type
  Construction,                           ! Line Item Type
  90.1-2001 Res B26 Roof Metal Building,  ! Item Name
  ,                                       ! Object End Use Key
  ,                                       ! Quantity {dimensionless}
  42.974,                                 ! Material Cost {$}
  CostPerArea;                            ! Material Cost Units

OS:ComponentData,
  {2363bc63-e552-43b2-a4e6-7fc3f7d2b043}, ! Handle
  Component Data 1,                       ! Name
  {84d9769e-80a7-41df-8c8e-884e576d72c8}, ! UUID
  {8693c646-73ce-4f88-b336-06c811c349ea}, ! Version UUID
  1363981618,                             ! Creation Timestamp
  1363981618,                             ! Version Timestamp
  {146ffa24-1427-4c49-8f62-a8086fdbe876}, ! Name of Object 1
  {d3e17777-1c7e-4236-b9de-bdf8d0fa2b37}, ! Name of Object 2
  {f8d6e702-8cec-45ca-bb47-50cf16373a61}, ! Name of Object 3
  {ec48cc22-6fa6-4aec-a78f-ce9e2ff55cbd}; ! Name of Object 4

