
OS:Version,
  {d6cf1ca0-67f6-49c7-8e94-6c42fe24ddd2}, ! Handle
  0.9.3;                                  ! Version Identifier

OS:Construction,
  {83ee503c-21d0-4a68-a9be-0a1d9587c95f}, ! Handle
  90.1-2001 Res B26 Roof Metal Building,  ! Name
  ,                                       ! Surface Rendering Name
  {23f7d631-2f8b-4466-9524-0f8913e5b895}, ! Layer 1
  {77823785-0fff-4b38-b2eb-530c0b9b7695}; ! Layer 2

OS:Material,
  {23f7d631-2f8b-4466-9524-0f8913e5b895}, ! Handle
  Metal Roofing,                          ! Name
  MediumSmooth,                           ! Roughness
  0.001524,                               ! Thickness {m}
  45.006,                                 ! Conductivity {W/m-K}
  7680,                                   ! Density {kg/m3}
  418.4,                                  ! Specific Heat {J/kg-K}
  0.9,                                    ! Thermal Absorptance
  0.7,                                    ! Solar Absorptance
  0.3;                                    ! Visible Absorptance

OS:Material,
  {77823785-0fff-4b38-b2eb-530c0b9b7695}, ! Handle
  Roof Insulation [10],                   ! Name
  MediumRough,                            ! Roughness
  0.174366,                               ! Thickness {m}
  0.049,                                  ! Conductivity {W/m-K}
  265,                                    ! Density {kg/m3}
  836.8,                                  ! Specific Heat {J/kg-K}
  0.9,                                    ! Thermal Absorptance
  0.7,                                    ! Solar Absorptance
  0.7;                                    ! Visible Absorptance

OS:ComponentCost:LineItem,
  {28c2dc70-5ef0-4c70-b0e1-a13f15192c73}, ! Handle
  90.1-2001 Res B26 Roof Metal Building,  ! Name
  ,                                       ! Type
  Construction,                           ! Line Item Type
  90.1-2001 Res B26 Roof Metal Building,  ! Item Name
  ,                                       ! Object End Use Key
  ,                                       ! Quantity {dimensionless}
  42.974,                                 ! Material Cost {$}
  CostPerArea;                            ! Material Cost Units

