
OS:Version,
  {a3994ce2-c5c6-445f-8ea4-2ccd577b56e2}, ! Handle
  0.9.3;                                  ! Version Identifier

OS:Material,
  {e95621a1-316c-4de2-8727-3da9413dd126}, ! Handle
  MAT-CC05 8 HW CONCRETE,                 ! Name
  Rough,                                  ! Roughness
  0.20321,                                ! Thickness {m}
  1.311,                                  ! Conductivity {W/m-K}
  2240,                                   ! Density {kg/m3}
  836.8,                                  ! Specific Heat {J/kg-K}
  0.9,                                    ! Thermal Absorptance
  0.7,                                    ! Solar Absorptance
  0.7;                                    ! Visible Absorptance

OS:Construction,
  {e049e708-cdb2-48e0-a47f-44f1a4379b61}, ! Handle
  90.1-1999 Nonres B7 Ext Slab Unheated - 8in Slab with Carpet, ! Name
  ,                                       ! Surface Rendering Name
  {e95621a1-316c-4de2-8727-3da9413dd126}, ! Layer 1
  {33774830-1694-4a49-86ca-a76405ab5715}; ! Layer 2

OS:Material:NoMass,
  {33774830-1694-4a49-86ca-a76405ab5715}, ! Handle
  CP02 CARPET PAD,                        ! Name
  VeryRough,                              ! Roughness
  0.21648,                                ! Thermal Resistance {m2-K/W}
  0.9,                                    ! Thermal Absorptance
  0.7,                                    ! Solar Absorptance
  0.8;                                    ! Visible Absorptance

OS:ComponentCost:LineItem,
  {0ffa3b9b-8b3f-44c6-b3fc-992ee4f02740}, ! Handle
  90.1-1999 Nonres B7 Ext Slab Unheated - 8in Slab with Carpet, ! Name
  ,                                       ! Type
  Construction,                           ! Line Item Type
  90.1-1999 Nonres B7 Ext Slab Unheated - 8in Slab with Carpet, ! Item Name
  ,                                       ! Object End Use Key
  ,                                       ! Quantity {dimensionless}
  45.52,                                  ! Material Cost {$}
  CostPerArea;                            ! Material Cost Units

