
OS:Version,
  {c0fbc426-1812-41eb-af2b-fc3d84903bd0}, !- Handle
  1.1.0;                                  !- Version Identifier

OS:Construction,
  {69b6d29e-f188-419b-8f46-337678efaeeb}, !- Handle
  Trp LoE Film (44) Bronze 6mm/6mm Air,   !- Name
  ,                                       !- Surface Rendering Name
  {9a9dc579-b9c7-422a-8760-130a4ad5cccd}, !- Layer 1
  {cf304b11-ffd4-468f-afb1-7e89d1a56cc0}, !- Layer 2
  {48140380-1dfa-477e-9ca3-fee6a19cf5b9}, !- Layer 3
  {cf304b11-ffd4-468f-afb1-7e89d1a56cc0}, !- Layer 4
  {825e40a1-18aa-4406-847c-0ff8cb44c633}; !- Layer 5

OS:WindowMaterial:Glazing,
  {9a9dc579-b9c7-422a-8760-130a4ad5cccd}, !- Handle
  BRONZE 6MM,                             !- Name
  SpectralAverage,                        !- Optical Data Type
  ,                                       !- Window Glass Spectral Data Set Name
  0.006,                                  !- Thickness {m}
  0.482,                                  !- Solar Transmittance at Normal Incidence
  0.054,                                  !- Front Side Solar Reflectance at Normal Incidence
  0.054,                                  !- Back Side Solar Reflectance at Normal Incidence
  0.534,                                  !- Visible Transmittance at Normal Incidence
  0.057,                                  !- Front Side Visible Reflectance at Normal Incidence
  0.057,                                  !- Back Side Visible Reflectance at Normal Incidence
  0,                                      !- Infrared Transmittance at Normal Incidence
  0.84,                                   !- Front Side Infrared Hemispherical Emissivity
  0.84,                                   !- Back Side Infrared Hemispherical Emissivity
  0.9;                                    !- Conductivity {W/m-K}

OS:WindowMaterial:Gas,
  {cf304b11-ffd4-468f-afb1-7e89d1a56cc0}, !- Handle
  AIR 6MM,                                !- Name
  Air,                                    !- Gas Type
  0.0063;                                 !- Thickness {m}

OS:WindowMaterial:Glazing,
  {48140380-1dfa-477e-9ca3-fee6a19cf5b9}, !- Handle
  COATED POLY-44,                         !- Name
  SpectralAverage,                        !- Optical Data Type
  ,                                       !- Window Glass Spectral Data Set Name
  0.00051,                                !- Thickness {m}
  0.245,                                  !- Solar Transmittance at Normal Incidence
  0.626,                                  !- Front Side Solar Reflectance at Normal Incidence
  0.641,                                  !- Back Side Solar Reflectance at Normal Incidence
  0.439,                                  !- Visible Transmittance at Normal Incidence
  0.397,                                  !- Front Side Visible Reflectance at Normal Incidence
  0.453,                                  !- Back Side Visible Reflectance at Normal Incidence
  0,                                      !- Infrared Transmittance at Normal Incidence
  0.037,                                  !- Front Side Infrared Hemispherical Emissivity
  0.72,                                   !- Back Side Infrared Hemispherical Emissivity
  0.14;                                   !- Conductivity {W/m-K}

OS:WindowMaterial:Glazing,
  {825e40a1-18aa-4406-847c-0ff8cb44c633}, !- Handle
  CLEAR 6MM,                              !- Name
  SpectralAverage,                        !- Optical Data Type
  ,                                       !- Window Glass Spectral Data Set Name
  0.006,                                  !- Thickness {m}
  0.775,                                  !- Solar Transmittance at Normal Incidence
  0.071,                                  !- Front Side Solar Reflectance at Normal Incidence
  0.071,                                  !- Back Side Solar Reflectance at Normal Incidence
  0.881,                                  !- Visible Transmittance at Normal Incidence
  0.08,                                   !- Front Side Visible Reflectance at Normal Incidence
  0.08,                                   !- Back Side Visible Reflectance at Normal Incidence
  0,                                      !- Infrared Transmittance at Normal Incidence
  0.84,                                   !- Front Side Infrared Hemispherical Emissivity
  0.84,                                   !- Back Side Infrared Hemispherical Emissivity
  0.9;                                    !- Conductivity {W/m-K}

