
OS:Version,
  {6358eebd-41a0-4602-937d-b5087be2c63f}, ! Handle
  0.9.3;                                  ! Version Identifier

OS:ComponentCost:LineItem,
  {76e388cc-ccbf-43f1-8ad6-e9063ab26715}, ! Handle
  90.1-2001 Res B7 Window Fixed,          ! Name
  ,                                       ! Type
  Construction,                           ! Line Item Type
  90.1-2001 Res B7 Window Fixed,          ! Item Name
  ,                                       ! Object End Use Key
  ,                                       ! Quantity {dimensionless}
  498.248,                                ! Material Cost {$}
  CostPerArea;                            ! Material Cost Units

OS:Construction,
  {bea6ccc3-02db-4e85-81ff-a0e4d4c8f348}, ! Handle
  90.1-2001 Res B7 Window Fixed,          ! Name
  ,                                       ! Surface Rendering Name
  {7b4db34f-0af6-46cd-8bbf-f7e674d5f468}; ! Layer 1

OS:WindowMaterial:Glazing,
  {7b4db34f-0af6-46cd-8bbf-f7e674d5f468}, ! Handle
  Theoretical Glass [75],                 ! Name
  SpectralAverage,                        ! Optical Data Type
  ,                                       ! Window Glass Spectral Data Set Name
  0.003,                                  ! Thickness {m}
  0.355891,                               ! Solar Transmittance at Normal Incidence
  0.594109,                               ! Front Side Solar Reflectance at Normal Incidence
  0.594109,                               ! Back Side Solar Reflectance at Normal Incidence
  0.370537,                               ! Visible Transmittance at Normal Incidence
  0.579463,                               ! Front Side Visible Reflectance at Normal Incidence
  0.579463,                               ! Back Side Visible Reflectance at Normal Incidence
  0,                                      ! Infrared Transmittance at Normal Incidence
  0.999,                                  ! Front Side Infrared Hemispherical Emissivity
  0.999,                                  ! Back Side Infrared Hemispherical Emissivity
  9.36219;                                ! Conductivity {W/m-K}

