
OS:Version,
  {ec32aa88-b1df-49f2-b05f-e4269d6c907e}, ! Handle
  0.9.3;                                  ! Version Identifier

OS:Construction,
  {aadd6c4e-b9bf-4054-9a41-81fae09c9ccc}, ! Handle
  90.1-2007 Res 4B Window Metal framing curtainwall-storefront, ! Name
  ,                                       ! Surface Rendering Name
  {e2423c98-24d3-4fdd-9e4f-aefdb5e62fd0}; ! Layer 1

OS:WindowMaterial:Glazing,
  {e2423c98-24d3-4fdd-9e4f-aefdb5e62fd0}, ! Handle
  Theoretical Glass [180],                ! Name
  SpectralAverage,                        ! Optical Data Type
  ,                                       ! Window Glass Spectral Data Set Name
  0.003,                                  ! Thickness {m}
  0.393749,                               ! Solar Transmittance at Normal Incidence
  0.556251,                               ! Front Side Solar Reflectance at Normal Incidence
  0.556251,                               ! Back Side Solar Reflectance at Normal Incidence
  0.507883,                               ! Visible Transmittance at Normal Incidence
  0.442117,                               ! Front Side Visible Reflectance at Normal Incidence
  0.442117,                               ! Back Side Visible Reflectance at Normal Incidence
  0,                                      ! Infrared Transmittance at Normal Incidence
  0.9,                                    ! Front Side Infrared Hemispherical Emissivity
  0.9,                                    ! Back Side Infrared Hemispherical Emissivity
  0.0155531;                              ! Conductivity {W/m-K}

OS:ComponentCost:LineItem,
  {6e2c8fa0-2c5e-4ec8-8aa5-7e09bd015af4}, ! Handle
  90.1-2007 Res 4B Window Metal framing curtainwall-storefront, ! Name
  ,                                       ! Type
  Construction,                           ! Line Item Type
  90.1-2007 Res 4B Window Metal framing curtainwall-storefront, ! Item Name
  ,                                       ! Object End Use Key
  ,                                       ! Quantity {dimensionless}
  512.02,                                 ! Material Cost {$}
  CostPerArea;                            ! Material Cost Units

