
OS:Version,
  {f97b8528-e8e3-46e9-aa2f-0dc29aff3698}, ! Handle
  0.9.3;                                  ! Version Identifier

OS:Construction,
  {4ea94cb7-7e6b-432b-b3ab-c3ddee56f51c}, ! Handle
  90.1-2007 Res 4B Window Metal framing curtainwall-storefront, ! Name
  ,                                       ! Surface Rendering Name
  {64d91923-d099-4ae7-9903-83fc6f4fbca2}; ! Layer 1

OS:WindowMaterial:Glazing,
  {64d91923-d099-4ae7-9903-83fc6f4fbca2}, ! Handle
  Theoretical Glass [180],                ! Name
  SpectralAverage,                        ! Optical Data Type
  ,                                       ! Window Glass Spectral Data Set Name
  0.003,                                  ! Thickness {m}
  0.393749,                               ! Solar Transmittance at Normal Incidence
  0.556251,                               ! Front Side Solar Reflectance at Normal Incidence
  0.556251,                               ! Back Side Solar Reflectance at Normal Incidence
  0.507883,                               ! Visible Transmittance at Normal Incidence
  0.442117,                               ! Front Side Visible Reflectance at Normal Incidence
  0.442117,                               ! Back Side Visible Reflectance at Normal Incidence
  0,                                      ! Infrared Transmittance at Normal Incidence
  0.9,                                    ! Front Side Infrared Hemispherical Emissivity
  0.9,                                    ! Back Side Infrared Hemispherical Emissivity
  0.0155531;                              ! Conductivity {W/m-K}

OS:ComponentCost:LineItem,
  {6b388706-9965-4d56-bf9f-182935c7c076}, ! Handle
  90.1-2007 Res 4B Window Metal framing curtainwall-storefront, ! Name
  ,                                       ! Type
  Construction,                           ! Line Item Type
  90.1-2007 Res 4B Window Metal framing curtainwall-storefront, ! Item Name
  ,                                       ! Object End Use Key
  ,                                       ! Quantity {dimensionless}
  512.02,                                 ! Material Cost {$}
  CostPerArea;                            ! Material Cost Units

OS:ComponentData,
  {922af189-d2fc-4a62-9110-c4d251535875}, ! Handle
  Component Data 1,                       ! Name
  {33cddd1a-aabc-4669-9133-fbd0ec9bf06e}, ! UUID
  {18988307-2a01-4511-b2cf-8ac032a9cb49}, ! Version UUID
  1363981855,                             ! Creation Timestamp
  1363981855,                             ! Version Timestamp
  {4ea94cb7-7e6b-432b-b3ab-c3ddee56f51c}, ! Name of Object 1
  {64d91923-d099-4ae7-9903-83fc6f4fbca2}, ! Name of Object 2
  {6b388706-9965-4d56-bf9f-182935c7c076}; ! Name of Object 3

