
OS:Version,
  {e2a9e7c9-99b3-425c-b5fe-ee3ef5651698}, ! Handle
  0.9.3;                                  ! Version Identifier

OS:ComponentCost:LineItem,
  {9b07469a-ce9a-4421-a355-d7e0e044ea89}, ! Handle
  90.1-1999 Res B8 Ext Wall Wood-Framed and Other, ! Name
  ,                                       ! Type
  Construction,                           ! Line Item Type
  90.1-1999 Res B8 Ext Wall Wood-Framed and Other, ! Item Name
  ,                                       ! Object End Use Key
  ,                                       ! Quantity {dimensionless}
  73.056,                                 ! Material Cost {$}
  CostPerArea;                            ! Material Cost Units

OS:Material,
  {24b1e730-26b4-43a7-9b66-bd872ac65bca}, ! Handle
  Wall Insulation [2],                    ! Name
  MediumRough,                            ! Roughness
  0.0746874,                              ! Thickness {m}
  0.045,                                  ! Conductivity {W/m-K}
  265,                                    ! Density {kg/m3}
  836.8,                                  ! Specific Heat {J/kg-K}
  0.9,                                    ! Thermal Absorptance
  0.7,                                    ! Solar Absorptance
  0.7;                                    ! Visible Absorptance

OS:Material,
  {cb56b5f4-7a4f-49ab-83ba-9b90e39b7e5b}, ! Handle
  Wood Siding,                            ! Name
  MediumSmooth,                           ! Roughness
  0.01,                                   ! Thickness {m}
  0.11,                                   ! Conductivity {W/m-K}
  544.62,                                 ! Density {kg/m3}
  1210,                                   ! Specific Heat {J/kg-K}
  0.9,                                    ! Thermal Absorptance
  0.78,                                   ! Solar Absorptance
  0.78;                                   ! Visible Absorptance

OS:Material,
  {fb4827e3-ef09-440c-994b-49fa1d36d7dc}, ! Handle
  1/2IN Gypsum,                           ! Name
  Smooth,                                 ! Roughness
  0.01271,                                ! Thickness {m}
  0.16,                                   ! Conductivity {W/m-K}
  784.9,                                  ! Density {kg/m3}
  830,                                    ! Specific Heat {J/kg-K}
  0.9,                                    ! Thermal Absorptance
  0.92,                                   ! Solar Absorptance
  0.92;                                   ! Visible Absorptance

OS:Construction,
  {87082159-bf4d-4591-b8db-6715e409a5c0}, ! Handle
  90.1-1999 Res B8 Ext Wall Wood-Framed and Other, ! Name
  ,                                       ! Surface Rendering Name
  {cb56b5f4-7a4f-49ab-83ba-9b90e39b7e5b}, ! Layer 1
  {24b1e730-26b4-43a7-9b66-bd872ac65bca}, ! Layer 2
  {fb4827e3-ef09-440c-994b-49fa1d36d7dc}; ! Layer 3

