
OS:Version,
  {8792bbd3-6b12-4358-9ac9-ef2d2289052f}, ! Handle
  0.9.3;                                  ! Version Identifier

OS:ComponentCost:LineItem,
  {9b02e1d7-fce3-4cd6-a70d-cc853f0f29b0}, ! Handle
  Title 24-2008 Nonres 8 Roof IEAD,       ! Name
  ,                                       ! Type
  Construction,                           ! Line Item Type
  Title 24-2008 Nonres 8 Roof IEAD,       ! Item Name
  ,                                       ! Object End Use Key
  ,                                       ! Quantity {dimensionless}
  48.645,                                 ! Material Cost {$}
  CostPerArea;                            ! Material Cost Units

OS:Material,
  {74804a2f-a521-46b4-b5cf-8aedbf3ef96e}, ! Handle
  Metal Decking,                          ! Name
  MediumSmooth,                           ! Roughness
  0.001524,                               ! Thickness {m}
  45.006,                                 ! Conductivity {W/m-K}
  7680,                                   ! Density {kg/m3}
  418.4,                                  ! Specific Heat {J/kg-K}
  0.9,                                    ! Thermal Absorptance
  0.7,                                    ! Solar Absorptance
  0.3;                                    ! Visible Absorptance

OS:Material,
  {39aa0168-4d6a-4110-a416-ad9f9f6be22e}, ! Handle
  Roof Insulation [110],                  ! Name
  MediumRough,                            ! Roughness
  0.116806,                               ! Thickness {m}
  0.049,                                  ! Conductivity {W/m-K}
  265,                                    ! Density {kg/m3}
  836.8,                                  ! Specific Heat {J/kg-K}
  0.9,                                    ! Thermal Absorptance
  0.7,                                    ! Solar Absorptance
  0.7;                                    ! Visible Absorptance

OS:Construction,
  {898cf391-4303-475e-b67a-ac8469d10f29}, ! Handle
  Title 24-2008 Nonres 8 Roof IEAD,       ! Name
  ,                                       ! Surface Rendering Name
  {45da5fd7-c3ab-43ef-8b70-4a41cbed4ac1}, ! Layer 1
  {39aa0168-4d6a-4110-a416-ad9f9f6be22e}, ! Layer 2
  {74804a2f-a521-46b4-b5cf-8aedbf3ef96e}; ! Layer 3

OS:Material,
  {45da5fd7-c3ab-43ef-8b70-4a41cbed4ac1}, ! Handle
  Roof Membrane [2],                      ! Name
  VeryRough,                              ! Roughness
  0.0095,                                 ! Thickness {m}
  0.16,                                   ! Conductivity {W/m-K}
  1121.29,                                ! Density {kg/m3}
  1460,                                   ! Specific Heat {J/kg-K}
  0.9,                                    ! Thermal Absorptance
  0.7,                                    ! Solar Absorptance
  0.85;                                   ! Visible Absorptance

