
! 
OS:Version,
  {8503bb35-3288-4176-9c41-752f3d976c4b}, !- Handle
  1.13.0;                                 !- Version Identifier


! 
OS:Material,
  {0327992d-6661-4d69-8d9b-9f445f2915c8}, !- Handle
  Aislamiento: SATE
WEBER: weber.therm placa XPS 50 (0.050 m)
R: 1.5 m2K/W,                             !- Name
  MediumRough,                                 !- Roughness
  0.05,                                    !- Thickness {m}
  0.034,                                    !- Conductivity {W/m-K}
  30.0,                                    !- Density {kg/m3}
  800.0,                                    !- Specific Heat {J/kg-K}
  0.9,                                    !- Thermal Absorptance
  0.6,                                    !- Solar Absorptance
  0.6;                                    !- Visible Absorptance

