
OS:Version,
  {ce81e123-8b66-47ae-87c4-a588b616cc3a}, ! Handle
  0.9.3;                                  ! Version Identifier

OS:Construction,
  {e873cb9b-3d99-4e02-aa6f-3bb53b83658b}, ! Handle
  90.1-1999 Nonres B26 Ext Slab Unheated - 4in Slab without Carpet, ! Name
  ,                                       ! Surface Rendering Name
  {2cd95b3d-6966-4a77-bda7-c8701ec795bd}; ! Layer 1

OS:Material,
  {2cd95b3d-6966-4a77-bda7-c8701ec795bd}, ! Handle
  MAT-CC05 4 HW CONCRETE,                 ! Name
  Rough,                                  ! Roughness
  0.1016,                                 ! Thickness {m}
  1.311,                                  ! Conductivity {W/m-K}
  2240,                                   ! Density {kg/m3}
  836.8,                                  ! Specific Heat {J/kg-K}
  0.9,                                    ! Thermal Absorptance
  0.7,                                    ! Solar Absorptance
  0.7;                                    ! Visible Absorptance

OS:ComponentCost:LineItem,
  {a7e6e6ee-7893-4f19-8de1-67294c8b0623}, ! Handle
  90.1-1999 Nonres B26 Ext Slab Unheated - 4in Slab without Carpet, ! Name
  ,                                       ! Type
  Construction,                           ! Line Item Type
  90.1-1999 Nonres B26 Ext Slab Unheated - 4in Slab without Carpet, ! Item Name
  ,                                       ! Object End Use Key
  ,                                       ! Quantity {dimensionless}
  45.52,                                  ! Material Cost {$}
  CostPerArea;                            ! Material Cost Units

OS:ComponentData,
  {405388a6-a70d-4188-babd-1bba562cc9ad}, ! Handle
  Component Data 1,                       ! Name
  {f5e1714f-018a-45a8-adcb-b8668df9f9d2}, ! UUID
  {919e418f-4760-41eb-b160-70daea639e5f}, ! Version UUID
  1363981159,                             ! Creation Timestamp
  1363981159,                             ! Version Timestamp
  {e873cb9b-3d99-4e02-aa6f-3bb53b83658b}, ! Name of Object 1
  {2cd95b3d-6966-4a77-bda7-c8701ec795bd}, ! Name of Object 2
  {a7e6e6ee-7893-4f19-8de1-67294c8b0623}; ! Name of Object 3

