
OS:Version,
  {89062f3b-bf8c-4f05-89bd-6a47f9deeff6}, ! Handle
  0.9.3;                                  ! Version Identifier

OS:Material,
  {9e77d3ca-b8e9-4b56-943b-a0d5279d8b50}, ! Handle
  MAT-CC05 4 HW CONCRETE,                 ! Name
  Rough,                                  ! Roughness
  0.1016,                                 ! Thickness {m}
  1.311,                                  ! Conductivity {W/m-K}
  2240,                                   ! Density {kg/m3}
  836.8,                                  ! Specific Heat {J/kg-K}
  0.9,                                    ! Thermal Absorptance
  0.7,                                    ! Solar Absorptance
  0.7;                                    ! Visible Absorptance

OS:Material:NoMass,
  {fe1106f4-905f-4609-85a7-5028d75c3aad}, ! Handle
  CP02 CARPET PAD,                        ! Name
  VeryRough,                              ! Roughness
  0.21648,                                ! Thermal Resistance {m2-K/W}
  0.9,                                    ! Thermal Absorptance
  0.7,                                    ! Solar Absorptance
  0.8;                                    ! Visible Absorptance

OS:Construction,
  {c46da934-c5e6-4422-9ff5-5268c2cd86e8}, ! Handle
  90.1-2007 Res 4B Ext Slab Unheated - 4in Slab with Carpet, ! Name
  ,                                       ! Surface Rendering Name
  {9e77d3ca-b8e9-4b56-943b-a0d5279d8b50}, ! Layer 1
  {fe1106f4-905f-4609-85a7-5028d75c3aad}; ! Layer 2

OS:ComponentCost:LineItem,
  {7069dadc-ed99-4d74-a53c-f1b7a4eddb28}, ! Handle
  90.1-2007 Res 4B Ext Slab Unheated - 4in Slab with Carpet, ! Name
  ,                                       ! Type
  Construction,                           ! Line Item Type
  90.1-2007 Res 4B Ext Slab Unheated - 4in Slab with Carpet, ! Item Name
  ,                                       ! Object End Use Key
  ,                                       ! Quantity {dimensionless}
  45.52,                                  ! Material Cost {$}
  CostPerArea;                            ! Material Cost Units

