
OS:Version,
  {556dc1d1-012d-4284-a0b6-29e0b8c1acea}, ! Handle
  0.9.3;                                  ! Version Identifier

OS:Material,
  {dac742fa-cb38-4aca-9f56-3b94d2f00b73}, ! Handle
  1/2IN Gypsum,                           ! Name
  Smooth,                                 ! Roughness
  0.01271,                                ! Thickness {m}
  0.16,                                   ! Conductivity {W/m-K}
  784.9,                                  ! Density {kg/m3}
  830,                                    ! Specific Heat {J/kg-K}
  0.9,                                    ! Thermal Absorptance
  0.92,                                   ! Solar Absorptance
  0.92;                                   ! Visible Absorptance

OS:Material,
  {76e0ad5b-fe81-44de-ab8e-5444c179040b}, ! Handle
  Wall Insulation [50],                   ! Name
  MediumRough,                            ! Roughness
  0.078829,                               ! Thickness {m}
  0.045,                                  ! Conductivity {W/m-K}
  265,                                    ! Density {kg/m3}
  836.8,                                  ! Specific Heat {J/kg-K}
  0.9,                                    ! Thermal Absorptance
  0.7,                                    ! Solar Absorptance
  0.7;                                    ! Visible Absorptance

OS:Material,
  {2fcbf676-f9eb-46e1-a6c8-ce52fb5be51e}, ! Handle
  SpandrelGlass,                          ! Name
  Smooth,                                 ! Roughness
  0.007,                                  ! Thickness {m}
  45.31,                                  ! Conductivity {W/m-K}
  7833.02,                                ! Density {kg/m3}
  500,                                    ! Specific Heat {J/kg-K}
  0.9,                                    ! Thermal Absorptance
  0.23,                                   ! Solar Absorptance
  0.23;                                   ! Visible Absorptance

OS:ComponentCost:LineItem,
  {7804975a-bb0c-481e-a124-262129a2d0fd}, ! Handle
  AEDG-SmOffice 3A Ext Wall Spandrel,     ! Name
  ,                                       ! Type
  Construction,                           ! Line Item Type
  AEDG-SmOffice 3A Ext Wall Spandrel,     ! Item Name
  ,                                       ! Object End Use Key
  ,                                       ! Quantity {dimensionless}
  74.63,                                  ! Material Cost {$}
  CostPerArea;                            ! Material Cost Units

OS:Construction,
  {bd2b2cd7-ed2a-48b8-a9e4-06b071cd1ee1}, ! Handle
  AEDG-SmOffice 3A Ext Wall Spandrel,     ! Name
  ,                                       ! Surface Rendering Name
  {2fcbf676-f9eb-46e1-a6c8-ce52fb5be51e}, ! Layer 1
  {76e0ad5b-fe81-44de-ab8e-5444c179040b}, ! Layer 2
  {dac742fa-cb38-4aca-9f56-3b94d2f00b73}; ! Layer 3

