
OS:Version,
  {8ddcebf1-93dd-4f7f-8e05-4f86b9e4908c}, ! Handle
  0.9.3;                                  ! Version Identifier

OS:Construction,
  {0554f5c5-9478-429b-adff-2b680d14e522}, ! Handle
  90.1-1999 Nonres B10 Ext Slab Unheated - 4in Slab with Carpet, ! Name
  ,                                       ! Surface Rendering Name
  {10cd44d7-4eb5-4292-9395-1c7d80b50fcb}, ! Layer 1
  {909e979e-d2ce-4515-a937-08e338a68a97}; ! Layer 2

OS:Material,
  {10cd44d7-4eb5-4292-9395-1c7d80b50fcb}, ! Handle
  MAT-CC05 4 HW CONCRETE,                 ! Name
  Rough,                                  ! Roughness
  0.1016,                                 ! Thickness {m}
  1.311,                                  ! Conductivity {W/m-K}
  2240,                                   ! Density {kg/m3}
  836.8,                                  ! Specific Heat {J/kg-K}
  0.9,                                    ! Thermal Absorptance
  0.7,                                    ! Solar Absorptance
  0.7;                                    ! Visible Absorptance

OS:Material:NoMass,
  {909e979e-d2ce-4515-a937-08e338a68a97}, ! Handle
  CP02 CARPET PAD,                        ! Name
  VeryRough,                              ! Roughness
  0.21648,                                ! Thermal Resistance {m2-K/W}
  0.9,                                    ! Thermal Absorptance
  0.7,                                    ! Solar Absorptance
  0.8;                                    ! Visible Absorptance

OS:ComponentCost:LineItem,
  {cfa27325-ca55-4843-9465-3276fd26e74d}, ! Handle
  90.1-1999 Nonres B10 Ext Slab Unheated - 4in Slab with Carpet, ! Name
  ,                                       ! Type
  Construction,                           ! Line Item Type
  90.1-1999 Nonres B10 Ext Slab Unheated - 4in Slab with Carpet, ! Item Name
  ,                                       ! Object End Use Key
  ,                                       ! Quantity {dimensionless}
  45.52,                                  ! Material Cost {$}
  CostPerArea;                            ! Material Cost Units

OS:ComponentData,
  {24ba0361-3ec6-4a33-8254-830c1335bbda}, ! Handle
  Component Data 1,                       ! Name
  {d36f8a78-1479-461c-b6c5-cb59f721dce6}, ! UUID
  {33026792-4eb4-420c-8ffd-61850624987a}, ! Version UUID
  1363981082,                             ! Creation Timestamp
  1363981082,                             ! Version Timestamp
  {0554f5c5-9478-429b-adff-2b680d14e522}, ! Name of Object 1
  {10cd44d7-4eb5-4292-9395-1c7d80b50fcb}, ! Name of Object 2
  {909e979e-d2ce-4515-a937-08e338a68a97}, ! Name of Object 3
  {cfa27325-ca55-4843-9465-3276fd26e74d}; ! Name of Object 4

