
OS:Version,
  {10669cdd-5f9a-4b6b-9c88-8ed88e54054e}, ! Handle
  0.9.3;                                  ! Version Identifier

OS:Construction,
  {b042704c-ab97-44cd-95da-f68ffdae26ff}, ! Handle
  189.1-2009 Nonres 8A Ext Wall Metal Building, ! Name
  ,                                       ! Surface Rendering Name
  {39263825-58aa-43e3-9c6c-d2ed386282a2}, ! Layer 1
  {cc766bbd-1718-4688-a471-ec5904fb6415}, ! Layer 2
  {251aa803-a78b-4d1c-bbe9-5264c5c2fdba}; ! Layer 3

OS:Material,
  {39263825-58aa-43e3-9c6c-d2ed386282a2}, ! Handle
  Metal Siding,                           ! Name
  Smooth,                                 ! Roughness
  0.0015,                                 ! Thickness {m}
  44.96,                                  ! Conductivity {W/m-K}
  7688.86,                                ! Density {kg/m3}
  410,                                    ! Specific Heat {J/kg-K}
  0.9,                                    ! Thermal Absorptance
  0.2,                                    ! Solar Absorptance
  0.2;                                    ! Visible Absorptance

OS:Material,
  {cc766bbd-1718-4688-a471-ec5904fb6415}, ! Handle
  Wall Insulation [38],                   ! Name
  MediumRough,                            ! Roughness
  0.139618,                               ! Thickness {m}
  0.045,                                  ! Conductivity {W/m-K}
  265,                                    ! Density {kg/m3}
  836.8,                                  ! Specific Heat {J/kg-K}
  0.9,                                    ! Thermal Absorptance
  0.7,                                    ! Solar Absorptance
  0.7;                                    ! Visible Absorptance

OS:Material,
  {251aa803-a78b-4d1c-bbe9-5264c5c2fdba}, ! Handle
  1/2IN Gypsum,                           ! Name
  Smooth,                                 ! Roughness
  0.01271,                                ! Thickness {m}
  0.16,                                   ! Conductivity {W/m-K}
  784.9,                                  ! Density {kg/m3}
  830,                                    ! Specific Heat {J/kg-K}
  0.9,                                    ! Thermal Absorptance
  0.92,                                   ! Solar Absorptance
  0.92;                                   ! Visible Absorptance

OS:ComponentCost:LineItem,
  {ec49d625-4f9f-4a6d-b426-0034ed29208e}, ! Handle
  189.1-2009 Nonres 8A Ext Wall Metal Building, ! Name
  ,                                       ! Type
  Construction,                           ! Line Item Type
  189.1-2009 Nonres 8A Ext Wall Metal Building, ! Item Name
  ,                                       ! Object End Use Key
  ,                                       ! Quantity {dimensionless}
  110.41,                                 ! Material Cost {$}
  CostPerArea;                            ! Material Cost Units

OS:ComponentData,
  {5c27d0dc-788c-4c8b-9b7c-75e59bdb822d}, ! Handle
  Component Data 1,                       ! Name
  {bfd1a877-97e6-471c-9673-369f4938ab4e}, ! UUID
  {b19168e7-dcf8-4b95-a5cf-d981308fa8bd}, ! Version UUID
  1363980955,                             ! Creation Timestamp
  1363980955,                             ! Version Timestamp
  {b042704c-ab97-44cd-95da-f68ffdae26ff}, ! Name of Object 1
  {39263825-58aa-43e3-9c6c-d2ed386282a2}, ! Name of Object 2
  {cc766bbd-1718-4688-a471-ec5904fb6415}, ! Name of Object 3
  {251aa803-a78b-4d1c-bbe9-5264c5c2fdba}, ! Name of Object 4
  {ec49d625-4f9f-4a6d-b426-0034ed29208e}; ! Name of Object 5

