
OS:Version,
  {1537eaae-29dc-4fee-a24b-74b45898285a}, ! Handle
  0.9.3;                                  ! Version Identifier

OS:Construction,
  {dbdea3cd-aef8-4ac9-80a0-2c249e6bfc9f}, ! Handle
  189.1-2009 Nonres 8A Ext Wall Metal Building, ! Name
  ,                                       ! Surface Rendering Name
  {8d1b6ee7-97d9-4fb6-a328-a6d8e13981d9}, ! Layer 1
  {f67425ba-259e-4434-b41f-8c2527d77fba}, ! Layer 2
  {a707341d-a64b-425a-b583-5be2f6fa44e3}; ! Layer 3

OS:Material,
  {8d1b6ee7-97d9-4fb6-a328-a6d8e13981d9}, ! Handle
  Metal Siding,                           ! Name
  Smooth,                                 ! Roughness
  0.0015,                                 ! Thickness {m}
  44.96,                                  ! Conductivity {W/m-K}
  7688.86,                                ! Density {kg/m3}
  410,                                    ! Specific Heat {J/kg-K}
  0.9,                                    ! Thermal Absorptance
  0.2,                                    ! Solar Absorptance
  0.2;                                    ! Visible Absorptance

OS:Material,
  {f67425ba-259e-4434-b41f-8c2527d77fba}, ! Handle
  Wall Insulation [38],                   ! Name
  MediumRough,                            ! Roughness
  0.139618,                               ! Thickness {m}
  0.045,                                  ! Conductivity {W/m-K}
  265,                                    ! Density {kg/m3}
  836.8,                                  ! Specific Heat {J/kg-K}
  0.9,                                    ! Thermal Absorptance
  0.7,                                    ! Solar Absorptance
  0.7;                                    ! Visible Absorptance

OS:Material,
  {a707341d-a64b-425a-b583-5be2f6fa44e3}, ! Handle
  1/2IN Gypsum,                           ! Name
  Smooth,                                 ! Roughness
  0.01271,                                ! Thickness {m}
  0.16,                                   ! Conductivity {W/m-K}
  784.9,                                  ! Density {kg/m3}
  830,                                    ! Specific Heat {J/kg-K}
  0.9,                                    ! Thermal Absorptance
  0.92,                                   ! Solar Absorptance
  0.92;                                   ! Visible Absorptance

OS:ComponentCost:LineItem,
  {84e3f21d-2e61-4d6d-89e9-440106f5931e}, ! Handle
  189.1-2009 Nonres 8A Ext Wall Metal Building, ! Name
  ,                                       ! Type
  Construction,                           ! Line Item Type
  189.1-2009 Nonres 8A Ext Wall Metal Building, ! Item Name
  ,                                       ! Object End Use Key
  ,                                       ! Quantity {dimensionless}
  110.41,                                 ! Material Cost {$}
  CostPerArea;                            ! Material Cost Units

