
OS:Version,
  {7540329b-eee4-4f26-807a-843bf89a1040}, !- Handle
  1.1.0;                                  !- Version Identifier

OS:Construction,
  {bd1ec2a1-80d8-468c-86e6-cefee2ba6799}, !- Handle
  Dbl Ref-B-H Clr 6mm/13mm Air,           !- Name
  ,                                       !- Surface Rendering Name
  {1a77ebfe-145a-430d-9498-a4fb3d4b0f6b}, !- Layer 1
  {dcefa3b1-763a-4195-b257-2cd3fc17cba8}, !- Layer 2
  {9d4f535a-b359-4139-97b7-459f64b7ebd5}; !- Layer 3

OS:WindowMaterial:Glazing,
  {1a77ebfe-145a-430d-9498-a4fb3d4b0f6b}, !- Handle
  REF B CLEAR HI 6MM,                     !- Name
  SpectralAverage,                        !- Optical Data Type
  ,                                       !- Window Glass Spectral Data Set Name
  0.006,                                  !- Thickness {m}
  0.24,                                   !- Solar Transmittance at Normal Incidence
  0.16,                                   !- Front Side Solar Reflectance at Normal Incidence
  0.32,                                   !- Back Side Solar Reflectance at Normal Incidence
  0.3,                                    !- Visible Transmittance at Normal Incidence
  0.16,                                   !- Front Side Visible Reflectance at Normal Incidence
  0.29,                                   !- Back Side Visible Reflectance at Normal Incidence
  0,                                      !- Infrared Transmittance at Normal Incidence
  0.84,                                   !- Front Side Infrared Hemispherical Emissivity
  0.6,                                    !- Back Side Infrared Hemispherical Emissivity
  0.9;                                    !- Conductivity {W/m-K}

OS:WindowMaterial:Gas,
  {dcefa3b1-763a-4195-b257-2cd3fc17cba8}, !- Handle
  AIR 13MM,                               !- Name
  Air,                                    !- Gas Type
  0.0127;                                 !- Thickness {m}

OS:WindowMaterial:Glazing,
  {9d4f535a-b359-4139-97b7-459f64b7ebd5}, !- Handle
  CLEAR 6MM,                              !- Name
  SpectralAverage,                        !- Optical Data Type
  ,                                       !- Window Glass Spectral Data Set Name
  0.006,                                  !- Thickness {m}
  0.775,                                  !- Solar Transmittance at Normal Incidence
  0.071,                                  !- Front Side Solar Reflectance at Normal Incidence
  0.071,                                  !- Back Side Solar Reflectance at Normal Incidence
  0.881,                                  !- Visible Transmittance at Normal Incidence
  0.08,                                   !- Front Side Visible Reflectance at Normal Incidence
  0.08,                                   !- Back Side Visible Reflectance at Normal Incidence
  0,                                      !- Infrared Transmittance at Normal Incidence
  0.84,                                   !- Front Side Infrared Hemispherical Emissivity
  0.84,                                   !- Back Side Infrared Hemispherical Emissivity
  0.9;                                    !- Conductivity {W/m-K}

