
OS:Version,
  {85908031-a17d-439b-b5d5-0211c1722f88}, ! Handle
  0.9.3;                                  ! Version Identifier

OS:Construction,
  {8f8a4d75-e657-46bd-998d-db159324157c}, ! Handle
  Title 24-2008 Nonres 15 Skylight Glass Skylight with Curb, ! Name
  ,                                       ! Surface Rendering Name
  {ad059cf7-6d1f-4297-903f-c586eedd3e15}; ! Layer 1

OS:WindowMaterial:Glazing,
  {ad059cf7-6d1f-4297-903f-c586eedd3e15}, ! Handle
  Theoretical Glass [665],                ! Name
  SpectralAverage,                        ! Optical Data Type
  ,                                       ! Window Glass Spectral Data Set Name
  0.003,                                  ! Thickness {m}
  0.347698,                               ! Solar Transmittance at Normal Incidence
  0.602302,                               ! Front Side Solar Reflectance at Normal Incidence
  0.602302,                               ! Back Side Solar Reflectance at Normal Incidence
  0.360158,                               ! Visible Transmittance at Normal Incidence
  0.589842,                               ! Front Side Visible Reflectance at Normal Incidence
  0.589842,                               ! Back Side Visible Reflectance at Normal Incidence
  0,                                      ! Infrared Transmittance at Normal Incidence
  0.91,                                   ! Front Side Infrared Hemispherical Emissivity
  0.91,                                   ! Back Side Infrared Hemispherical Emissivity
  0.387053;                               ! Conductivity {W/m-K}

OS:ComponentCost:LineItem,
  {e6587c9d-d649-47d4-b55e-7300ef7005b2}, ! Handle
  Title 24-2008 Nonres 15 Skylight Glass Skylight with Curb, ! Name
  ,                                       ! Type
  Construction,                           ! Line Item Type
  Title 24-2008 Nonres 15 Skylight Glass Skylight with Curb, ! Item Name
  ,                                       ! Object End Use Key
  ,                                       ! Quantity {dimensionless}
  480.601,                                ! Material Cost {$}
  CostPerArea;                            ! Material Cost Units

OS:ComponentData,
  {03ea85ef-74a9-4f66-848e-29b3cb6c59ca}, ! Handle
  Component Data 1,                       ! Name
  {18079e29-91dd-4aba-948c-16d2c7d829ca}, ! UUID
  {0cc302eb-c45d-4c8a-bc7f-c7be3f7e7b07}, ! Version UUID
  1363982119,                             ! Creation Timestamp
  1363982119,                             ! Version Timestamp
  {8f8a4d75-e657-46bd-998d-db159324157c}, ! Name of Object 1
  {ad059cf7-6d1f-4297-903f-c586eedd3e15}, ! Name of Object 2
  {e6587c9d-d649-47d4-b55e-7300ef7005b2}; ! Name of Object 3

