
OS:Version,
  {bfb01469-da7c-4a82-852b-a3b87556d132}, ! Handle
  0.9.3;                                  ! Version Identifier

OS:WindowMaterial:Glazing,
  {4ab9447b-bb8e-4ca2-85e3-1f08ba6c8a79}, ! Handle
  Theoretical Glass [665],                ! Name
  SpectralAverage,                        ! Optical Data Type
  ,                                       ! Window Glass Spectral Data Set Name
  0.003,                                  ! Thickness {m}
  0.347698,                               ! Solar Transmittance at Normal Incidence
  0.602302,                               ! Front Side Solar Reflectance at Normal Incidence
  0.602302,                               ! Back Side Solar Reflectance at Normal Incidence
  0.360158,                               ! Visible Transmittance at Normal Incidence
  0.589842,                               ! Front Side Visible Reflectance at Normal Incidence
  0.589842,                               ! Back Side Visible Reflectance at Normal Incidence
  0,                                      ! Infrared Transmittance at Normal Incidence
  0.91,                                   ! Front Side Infrared Hemispherical Emissivity
  0.91,                                   ! Back Side Infrared Hemispherical Emissivity
  0.387053;                               ! Conductivity {W/m-K}

OS:Construction,
  {2d3b6c40-c329-48f6-a0f6-be2e2bdf0419}, ! Handle
  Title 24-2008 Nonres 15 Skylight Glass Skylight with Curb, ! Name
  ,                                       ! Surface Rendering Name
  {4ab9447b-bb8e-4ca2-85e3-1f08ba6c8a79}; ! Layer 1

OS:ComponentCost:LineItem,
  {15cbc36b-5f96-41c6-99a8-f740f4d47517}, ! Handle
  Title 24-2008 Nonres 15 Skylight Glass Skylight with Curb, ! Name
  ,                                       ! Type
  Construction,                           ! Line Item Type
  Title 24-2008 Nonres 15 Skylight Glass Skylight with Curb, ! Item Name
  ,                                       ! Object End Use Key
  ,                                       ! Quantity {dimensionless}
  480.601,                                ! Material Cost {$}
  CostPerArea;                            ! Material Cost Units

