
OS:Version,
  {63c6fd58-b3d1-41fa-9bcd-d0e0d0fe2603}, ! Handle
  0.9.3;                                  ! Version Identifier

OS:Construction,
  {0cd097fc-7a97-4cb3-b4b6-0e9d3356a62f}, ! Handle
  189.1-2009 Nonres 1A Roof Metal Building, ! Name
  ,                                       ! Surface Rendering Name
  {61ab965d-bccc-4fe6-8dd3-7bf464d8a55b}, ! Layer 1
  {13625b18-88fa-4dbd-9c6f-a799e79d1b62}; ! Layer 2

OS:Material,
  {61ab965d-bccc-4fe6-8dd3-7bf464d8a55b}, ! Handle
  Metal Roofing,                          ! Name
  MediumSmooth,                           ! Roughness
  0.001524,                               ! Thickness {m}
  45.006,                                 ! Conductivity {W/m-K}
  7680,                                   ! Density {kg/m3}
  418.4,                                  ! Specific Heat {J/kg-K}
  0.9,                                    ! Thermal Absorptance
  0.7,                                    ! Solar Absorptance
  0.3;                                    ! Visible Absorptance

OS:Material,
  {13625b18-88fa-4dbd-9c6f-a799e79d1b62}, ! Handle
  Roof Insulation [19],                   ! Name
  MediumRough,                            ! Roughness
  0.186777,                               ! Thickness {m}
  0.049,                                  ! Conductivity {W/m-K}
  265,                                    ! Density {kg/m3}
  836.8,                                  ! Specific Heat {J/kg-K}
  0.9,                                    ! Thermal Absorptance
  0.7,                                    ! Solar Absorptance
  0.7;                                    ! Visible Absorptance

OS:ComponentCost:LineItem,
  {8d09f063-31ac-4c37-acf4-29791cd4bd3a}, ! Handle
  189.1-2009 Nonres 1A Roof Metal Building, ! Name
  ,                                       ! Type
  Construction,                           ! Line Item Type
  189.1-2009 Nonres 1A Roof Metal Building, ! Item Name
  ,                                       ! Object End Use Key
  ,                                       ! Quantity {dimensionless}
  44.153,                                 ! Material Cost {$}
  CostPerArea;                            ! Material Cost Units

