
OS:Version,
  {3f32ba61-e957-4a69-afbb-289772f00a6b}, ! Handle
  0.9.3;                                  ! Version Identifier

OS:Construction,
  {a8d473c0-2807-4d63-8778-8e043bc0c8a2}, ! Handle
  189.1-2009 Nonres 1A Roof Metal Building, ! Name
  ,                                       ! Surface Rendering Name
  {aeadd48f-f7b0-44da-b6e0-1eb3ca30178c}, ! Layer 1
  {1be50802-e600-462a-852a-1e9c75afdcb8}; ! Layer 2

OS:Material,
  {aeadd48f-f7b0-44da-b6e0-1eb3ca30178c}, ! Handle
  Metal Roofing,                          ! Name
  MediumSmooth,                           ! Roughness
  0.001524,                               ! Thickness {m}
  45.006,                                 ! Conductivity {W/m-K}
  7680,                                   ! Density {kg/m3}
  418.4,                                  ! Specific Heat {J/kg-K}
  0.9,                                    ! Thermal Absorptance
  0.7,                                    ! Solar Absorptance
  0.3;                                    ! Visible Absorptance

OS:Material,
  {1be50802-e600-462a-852a-1e9c75afdcb8}, ! Handle
  Roof Insulation [19],                   ! Name
  MediumRough,                            ! Roughness
  0.186777,                               ! Thickness {m}
  0.049,                                  ! Conductivity {W/m-K}
  265,                                    ! Density {kg/m3}
  836.8,                                  ! Specific Heat {J/kg-K}
  0.9,                                    ! Thermal Absorptance
  0.7,                                    ! Solar Absorptance
  0.7;                                    ! Visible Absorptance

OS:ComponentCost:LineItem,
  {a3625d7e-8687-4581-a6ab-dbd2aeda434d}, ! Handle
  189.1-2009 Nonres 1A Roof Metal Building, ! Name
  ,                                       ! Type
  Construction,                           ! Line Item Type
  189.1-2009 Nonres 1A Roof Metal Building, ! Item Name
  ,                                       ! Object End Use Key
  ,                                       ! Quantity {dimensionless}
  44.153,                                 ! Material Cost {$}
  CostPerArea;                            ! Material Cost Units

OS:ComponentData,
  {cb5d7aae-39ea-4e51-8054-8442130e1f21}, ! Handle
  Component Data 1,                       ! Name
  {b2ce5e08-fc27-46ec-b10f-c60972e7eab6}, ! UUID
  {7104ce95-462c-480d-9483-8500efcdd6a2}, ! Version UUID
  1363979817,                             ! Creation Timestamp
  1363979817,                             ! Version Timestamp
  {a8d473c0-2807-4d63-8778-8e043bc0c8a2}, ! Name of Object 1
  {aeadd48f-f7b0-44da-b6e0-1eb3ca30178c}, ! Name of Object 2
  {1be50802-e600-462a-852a-1e9c75afdcb8}, ! Name of Object 3
  {a3625d7e-8687-4581-a6ab-dbd2aeda434d}; ! Name of Object 4

