
OS:Version,
  {8130bf95-152c-490d-bb58-c5f772eeb8db}, ! Handle
  0.9.3;                                  ! Version Identifier

OS:Material,
  {510a8f6e-9e37-40c9-897d-7430580bbf58}, ! Handle
  1/2IN Gypsum Top,                       ! Name
  Smooth,                                 ! Roughness
  0.01271,                                ! Thickness {m}
  0.16,                                   ! Conductivity {W/m-K}
  784.9,                                  ! Density {kg/m3}
  830,                                    ! Specific Heat {J/kg-K}
  0.9,                                    ! Thermal Absorptance
  0.92,                                   ! Solar Absorptance
  0.92;                                   ! Visible Absorptance

OS:Material,
  {0d221ffe-cdfc-41ef-9066-6457d4f7bf17}, ! Handle
  AtticFloor Insulation [7],              ! Name
  MediumRough,                            ! Roughness
  0.210976,                               ! Thickness {m}
  0.049,                                  ! Conductivity {W/m-K}
  265,                                    ! Density {kg/m3}
  836.8,                                  ! Specific Heat {J/kg-K}
  0.9,                                    ! Thermal Absorptance
  0.7,                                    ! Solar Absorptance
  0.7;                                    ! Visible Absorptance

OS:Material,
  {91ab7658-a147-40af-b435-62894ece4faa}, ! Handle
  1/2IN Gypsum Bottom,                    ! Name
  Smooth,                                 ! Roughness
  0.01271,                                ! Thickness {m}
  0.16,                                   ! Conductivity {W/m-K}
  784.9,                                  ! Density {kg/m3}
  830,                                    ! Specific Heat {J/kg-K}
  0.9,                                    ! Thermal Absorptance
  0.92,                                   ! Solar Absorptance
  0.92;                                   ! Visible Absorptance

OS:Construction,
  {bf978b50-3acb-4188-9737-67bf819c4e42}, ! Handle
  AEDG SHC Nonres 3A Attic Floor,         ! Name
  ,                                       ! Surface Rendering Name
  {510a8f6e-9e37-40c9-897d-7430580bbf58}, ! Layer 1
  {0d221ffe-cdfc-41ef-9066-6457d4f7bf17}, ! Layer 2
  {91ab7658-a147-40af-b435-62894ece4faa}; ! Layer 3

OS:ComponentCost:LineItem,
  {023380e7-3f1c-47a8-84b1-1e79e465630c}, ! Handle
  AEDG SHC Nonres 3A Attic Floor,         ! Name
  ,                                       ! Type
  Construction,                           ! Line Item Type
  AEDG SHC Nonres 3A Attic Floor,         ! Item Name
  ,                                       ! Object End Use Key
  ,                                       ! Quantity {dimensionless}
  0,                                      ! Material Cost {$}
  CostPerArea;                            ! Material Cost Units

