
OS:Version,
  {3bb3d7cb-aadd-4303-90b4-14692f3a689f}, ! Handle
  0.9.3;                                  ! Version Identifier

OS:ComponentCost:LineItem,
  {5f9a695e-ebfb-484c-93dd-45f6177a93b5}, ! Handle
  189.1-2009 Res 4B Int Wall,             ! Name
  ,                                       ! Type
  Construction,                           ! Line Item Type
  189.1-2009 Res 4B Int Wall,             ! Item Name
  ,                                       ! Object End Use Key
  ,                                       ! Quantity {dimensionless}
  0,                                      ! Material Cost {$}
  CostPerArea;                            ! Material Cost Units

OS:Construction,
  {e7236477-b54c-4804-a6cc-9a812ddbeb43}, ! Handle
  189.1-2009 Res 4B Int Wall,             ! Name
  ,                                       ! Surface Rendering Name
  {72c4ac55-e881-4353-ade3-d9a220c0a8d0}, ! Layer 1
  {72c4ac55-e881-4353-ade3-d9a220c0a8d0}; ! Layer 2

OS:Material,
  {72c4ac55-e881-4353-ade3-d9a220c0a8d0}, ! Handle
  GP01 1/2 GYPSUM,                        ! Name
  Smooth,                                 ! Roughness
  0.01271,                                ! Thickness {m}
  0.16,                                   ! Conductivity {W/m-K}
  800,                                    ! Density {kg/m3}
  1090,                                   ! Specific Heat {J/kg-K}
  0.9,                                    ! Thermal Absorptance
  0.7,                                    ! Solar Absorptance
  0.5;                                    ! Visible Absorptance

OS:Material,
  {e3d1cbab-0ef1-44b6-a381-f7d554752f91}, ! Handle
  GP01 1/2 GYPSUM 1,                      ! Name
  Smooth,                                 ! Roughness
  0.01271,                                ! Thickness {m}
  0.16,                                   ! Conductivity {W/m-K}
  800,                                    ! Density {kg/m3}
  1090,                                   ! Specific Heat {J/kg-K}
  0.9,                                    ! Thermal Absorptance
  0.7,                                    ! Solar Absorptance
  0.5;                                    ! Visible Absorptance

