
OS:Version,
  {73e46ee0-5cfd-4f6a-a94d-46897d033e94}, ! Handle
  0.9.3;                                  ! Version Identifier

OS:Material:NoMass,
  {2531ddf9-88ae-4782-b3a6-3312753dc2e9}, ! Handle
  CP02 CARPET PAD,                        ! Name
  VeryRough,                              ! Roughness
  0.21648,                                ! Thermal Resistance {m2-K/W}
  0.9,                                    ! Thermal Absorptance
  0.7,                                    ! Solar Absorptance
  0.8;                                    ! Visible Absorptance

OS:Construction,
  {1a414475-1bb5-49ea-b3f8-5b2518bd372b}, ! Handle
  AEDG-SmOffice 1A Ext Slab Unheated - 4in Slab with Carpet, ! Name
  ,                                       ! Surface Rendering Name
  {920b323d-84ae-47f9-974e-36de5097206a}, ! Layer 1
  {2531ddf9-88ae-4782-b3a6-3312753dc2e9}; ! Layer 2

OS:Material,
  {920b323d-84ae-47f9-974e-36de5097206a}, ! Handle
  MAT-CC05 4 HW CONCRETE,                 ! Name
  Rough,                                  ! Roughness
  0.1016,                                 ! Thickness {m}
  1.311,                                  ! Conductivity {W/m-K}
  2240,                                   ! Density {kg/m3}
  836.8,                                  ! Specific Heat {J/kg-K}
  0.9,                                    ! Thermal Absorptance
  0.7,                                    ! Solar Absorptance
  0.7;                                    ! Visible Absorptance

OS:ComponentCost:LineItem,
  {ead4ac6a-8e4a-4f64-987a-ebbdecdbb051}, ! Handle
  AEDG-SmOffice 1A Ext Slab Unheated - 4in Slab with Carpet, ! Name
  ,                                       ! Type
  Construction,                           ! Line Item Type
  AEDG-SmOffice 1A Ext Slab Unheated - 4in Slab with Carpet, ! Item Name
  ,                                       ! Object End Use Key
  ,                                       ! Quantity {dimensionless}
  45.52,                                  ! Material Cost {$}
  CostPerArea;                            ! Material Cost Units

