
OS:Version,
  {942c2210-ecd3-450f-9448-9b3119e6b988}, ! Handle
  0.9.3;                                  ! Version Identifier

OS:Construction,
  {eef42fde-dcc3-441b-b0a5-4e4bd373943b}, ! Handle
  189.1-2009 Nonres 4B Window Metal framing curtainwall-storefront, ! Name
  ,                                       ! Surface Rendering Name
  {ac23cbad-5083-4e5c-b217-7193e4efea3e}; ! Layer 1

OS:WindowMaterial:Glazing,
  {ac23cbad-5083-4e5c-b217-7193e4efea3e}, ! Handle
  Theoretical Glass [205],                ! Name
  SpectralAverage,                        ! Optical Data Type
  ,                                       ! Window Glass Spectral Data Set Name
  0.003,                                  ! Thickness {m}
  0.330166,                               ! Solar Transmittance at Normal Incidence
  0.619834,                               ! Front Side Solar Reflectance at Normal Incidence
  0.619834,                               ! Back Side Solar Reflectance at Normal Incidence
  0.439975,                               ! Visible Transmittance at Normal Incidence
  0.510025,                               ! Front Side Visible Reflectance at Normal Incidence
  0.510025,                               ! Back Side Visible Reflectance at Normal Incidence
  0,                                      ! Infrared Transmittance at Normal Incidence
  0.9,                                    ! Front Side Infrared Hemispherical Emissivity
  0.9,                                    ! Back Side Infrared Hemispherical Emissivity
  0.0109313;                              ! Conductivity {W/m-K}

OS:ComponentCost:LineItem,
  {259a8890-b88f-4104-899d-a1a85db208c8}, ! Handle
  189.1-2009 Nonres 4B Window Metal framing curtainwall-storefront, ! Name
  ,                                       ! Type
  Construction,                           ! Line Item Type
  189.1-2009 Nonres 4B Window Metal framing curtainwall-storefront, ! Item Name
  ,                                       ! Object End Use Key
  ,                                       ! Quantity {dimensionless}
  586.91,                                 ! Material Cost {$}
  CostPerArea;                            ! Material Cost Units

OS:ComponentData,
  {daced2ef-e241-435a-ae1b-fc392db69be7}, ! Handle
  Component Data 1,                       ! Name
  {1ef7257b-bea9-4278-9556-d7741f3b945b}, ! UUID
  {9fe40500-049b-4037-96f3-7ee235914f20}, ! Version UUID
  1363980941,                             ! Creation Timestamp
  1363980941,                             ! Version Timestamp
  {eef42fde-dcc3-441b-b0a5-4e4bd373943b}, ! Name of Object 1
  {ac23cbad-5083-4e5c-b217-7193e4efea3e}, ! Name of Object 2
  {259a8890-b88f-4104-899d-a1a85db208c8}; ! Name of Object 3

