
OS:Version,
  {44662f76-9e43-43f8-9415-02e962838f84}, ! Handle
  0.9.3;                                  ! Version Identifier

OS:ComponentCost:LineItem,
  {6988f395-3715-4b50-9b34-b21cfd35a60b}, ! Handle
  189.1-2009 Nonres 4B Window Metal framing curtainwall-storefront, ! Name
  ,                                       ! Type
  Construction,                           ! Line Item Type
  189.1-2009 Nonres 4B Window Metal framing curtainwall-storefront, ! Item Name
  ,                                       ! Object End Use Key
  ,                                       ! Quantity {dimensionless}
  586.91,                                 ! Material Cost {$}
  CostPerArea;                            ! Material Cost Units

OS:Construction,
  {c6089ff0-4168-4cab-9e4b-de158597892e}, ! Handle
  189.1-2009 Nonres 4B Window Metal framing curtainwall-storefront, ! Name
  ,                                       ! Surface Rendering Name
  {cad2fa1f-f783-47e2-a8a7-452e840874f7}; ! Layer 1

OS:WindowMaterial:Glazing,
  {cad2fa1f-f783-47e2-a8a7-452e840874f7}, ! Handle
  Theoretical Glass [205],                ! Name
  SpectralAverage,                        ! Optical Data Type
  ,                                       ! Window Glass Spectral Data Set Name
  0.003,                                  ! Thickness {m}
  0.330166,                               ! Solar Transmittance at Normal Incidence
  0.619834,                               ! Front Side Solar Reflectance at Normal Incidence
  0.619834,                               ! Back Side Solar Reflectance at Normal Incidence
  0.439975,                               ! Visible Transmittance at Normal Incidence
  0.510025,                               ! Front Side Visible Reflectance at Normal Incidence
  0.510025,                               ! Back Side Visible Reflectance at Normal Incidence
  0,                                      ! Infrared Transmittance at Normal Incidence
  0.9,                                    ! Front Side Infrared Hemispherical Emissivity
  0.9,                                    ! Back Side Infrared Hemispherical Emissivity
  0.0109313;                              ! Conductivity {W/m-K}

