
OS:Version,
  {8690179f-d0b8-4f21-a669-9bd7a7b801e3}, ! Handle
  0.9.3;                                  ! Version Identifier

OS:Material,
  {c0db67cb-88fe-4055-bc99-295d633621b8}, ! Handle
  Roof Insulation [1],                    ! Name
  MediumRough,                            ! Roughness
  0.123533,                               ! Thickness {m}
  0.049,                                  ! Conductivity {W/m-K}
  265,                                    ! Density {kg/m3}
  836.8,                                  ! Specific Heat {J/kg-K}
  0.9,                                    ! Thermal Absorptance
  0.7,                                    ! Solar Absorptance
  0.7;                                    ! Visible Absorptance

OS:ComponentCost:LineItem,
  {3ed84fb0-c07f-4964-a6d9-2fb809022722}, ! Handle
  90.1-2001 Nonres B13 Roof Metal Building, ! Name
  ,                                       ! Type
  Construction,                           ! Line Item Type
  90.1-2001 Nonres B13 Roof Metal Building, ! Item Name
  ,                                       ! Object End Use Key
  ,                                       ! Quantity {dimensionless}
  38.206,                                 ! Material Cost {$}
  CostPerArea;                            ! Material Cost Units

OS:Material,
  {30374560-fcd3-4d8c-b21c-d33179304982}, ! Handle
  Metal Roofing,                          ! Name
  MediumSmooth,                           ! Roughness
  0.001524,                               ! Thickness {m}
  45.006,                                 ! Conductivity {W/m-K}
  7680,                                   ! Density {kg/m3}
  418.4,                                  ! Specific Heat {J/kg-K}
  0.9,                                    ! Thermal Absorptance
  0.7,                                    ! Solar Absorptance
  0.3;                                    ! Visible Absorptance

OS:Construction,
  {24c0e294-d5f4-4cdf-99bc-6fa0b772a8d6}, ! Handle
  90.1-2001 Nonres B13 Roof Metal Building, ! Name
  ,                                       ! Surface Rendering Name
  {30374560-fcd3-4d8c-b21c-d33179304982}, ! Layer 1
  {c0db67cb-88fe-4055-bc99-295d633621b8}; ! Layer 2

