
OS:Version,
  {b9b74208-b2f7-41a0-beac-99190890d2af}, ! Handle
  0.9.3;                                  ! Version Identifier

OS:Construction,
  {437efeaf-068a-49c9-b769-f02555e70c7b}, ! Handle
  Title 24-2008 Nonres 10 Window Fixed,   ! Name
  ,                                       ! Surface Rendering Name
  {f2f7dc3c-e139-4b08-9e2d-56cad256b81f}; ! Layer 1

OS:WindowMaterial:Glazing,
  {f2f7dc3c-e139-4b08-9e2d-56cad256b81f}, ! Handle
  Theoretical Glass [673],                ! Name
  SpectralAverage,                        ! Optical Data Type
  ,                                       ! Window Glass Spectral Data Set Name
  0.003,                                  ! Thickness {m}
  0.304934,                               ! Solar Transmittance at Normal Incidence
  0.645066,                               ! Front Side Solar Reflectance at Normal Incidence
  0.645066,                               ! Back Side Solar Reflectance at Normal Incidence
  0.310844,                               ! Visible Transmittance at Normal Incidence
  0.639156,                               ! Front Side Visible Reflectance at Normal Incidence
  0.639156,                               ! Back Side Visible Reflectance at Normal Incidence
  0,                                      ! Infrared Transmittance at Normal Incidence
  0.9,                                    ! Front Side Infrared Hemispherical Emissivity
  0.9,                                    ! Back Side Infrared Hemispherical Emissivity
  0.0139798;                              ! Conductivity {W/m-K}

OS:ComponentCost:LineItem,
  {828240b6-0b6c-40a7-94e8-aa70eabcc913}, ! Handle
  Title 24-2008 Nonres 10 Window Fixed,   ! Name
  ,                                       ! Type
  Construction,                           ! Line Item Type
  Title 24-2008 Nonres 10 Window Fixed,   ! Item Name
  ,                                       ! Object End Use Key
  ,                                       ! Quantity {dimensionless}
  590.138,                                ! Material Cost {$}
  CostPerArea;                            ! Material Cost Units

OS:ComponentData,
  {29f016ce-0127-4261-aacd-f49a0f0d66c2}, ! Handle
  Component Data 1,                       ! Name
  {9299ddd6-4b04-42b7-bc79-b01a0b090d23}, ! UUID
  {2255ad76-678c-411a-80ca-028574b491ec}, ! Version UUID
  1363982066,                             ! Creation Timestamp
  1363982066,                             ! Version Timestamp
  {437efeaf-068a-49c9-b769-f02555e70c7b}, ! Name of Object 1
  {f2f7dc3c-e139-4b08-9e2d-56cad256b81f}, ! Name of Object 2
  {828240b6-0b6c-40a7-94e8-aa70eabcc913}; ! Name of Object 3

