
OS:Version,
  {1dfd45d9-d905-4ab9-8841-61e18868d445}, ! Handle
  0.9.3;                                  ! Version Identifier

OS:ComponentCost:LineItem,
  {75336d43-7af4-42b5-95c1-35402dbd027d}, ! Handle
  Title 24-2008 Nonres 10 Window Fixed,   ! Name
  ,                                       ! Type
  Construction,                           ! Line Item Type
  Title 24-2008 Nonres 10 Window Fixed,   ! Item Name
  ,                                       ! Object End Use Key
  ,                                       ! Quantity {dimensionless}
  590.138,                                ! Material Cost {$}
  CostPerArea;                            ! Material Cost Units

OS:Construction,
  {83a61af1-a0ba-4e9f-beea-e11dc9a13363}, ! Handle
  Title 24-2008 Nonres 10 Window Fixed,   ! Name
  ,                                       ! Surface Rendering Name
  {f3ed976e-ccaa-430b-964a-c9ebcf3e234b}; ! Layer 1

OS:WindowMaterial:Glazing,
  {f3ed976e-ccaa-430b-964a-c9ebcf3e234b}, ! Handle
  Theoretical Glass [673],                ! Name
  SpectralAverage,                        ! Optical Data Type
  ,                                       ! Window Glass Spectral Data Set Name
  0.003,                                  ! Thickness {m}
  0.304934,                               ! Solar Transmittance at Normal Incidence
  0.645066,                               ! Front Side Solar Reflectance at Normal Incidence
  0.645066,                               ! Back Side Solar Reflectance at Normal Incidence
  0.310844,                               ! Visible Transmittance at Normal Incidence
  0.639156,                               ! Front Side Visible Reflectance at Normal Incidence
  0.639156,                               ! Back Side Visible Reflectance at Normal Incidence
  0,                                      ! Infrared Transmittance at Normal Incidence
  0.9,                                    ! Front Side Infrared Hemispherical Emissivity
  0.9,                                    ! Back Side Infrared Hemispherical Emissivity
  0.0139798;                              ! Conductivity {W/m-K}

