
OS:Version,
  {c676746b-bbff-4a66-82c8-f8de9396665a}, ! Handle
  0.9.3;                                  ! Version Identifier

OS:Material,
  {ebe74ffa-effc-484f-9bed-4d08c969924d}, ! Handle
  Roof Membrane,                          ! Name
  VeryRough,                              ! Roughness
  0.0095,                                 ! Thickness {m}
  0.16,                                   ! Conductivity {W/m-K}
  1121.29,                                ! Density {kg/m3}
  1460,                                   ! Specific Heat {J/kg-K}
  0.9,                                    ! Thermal Absorptance
  0.7,                                    ! Solar Absorptance
  0.7;                                    ! Visible Absorptance

OS:Material,
  {2e369f17-48a7-44bd-b459-2553abb95719}, ! Handle
  Roof Insulation,                        ! Name
  MediumRough,                            ! Roughness
  0.124958,                               ! Thickness {m}
  0.049,                                  ! Conductivity {W/m-K}
  265,                                    ! Density {kg/m3}
  836.8,                                  ! Specific Heat {J/kg-K}
  0.9,                                    ! Thermal Absorptance
  0.7,                                    ! Solar Absorptance
  0.7;                                    ! Visible Absorptance

OS:ComponentCost:LineItem,
  {5850e7b1-399b-4089-8fcc-5a9933e2bf0e}, ! Handle
  90.1-2004 Nonres 3A Roof IEAD,          ! Name
  ,                                       ! Type
  Construction,                           ! Line Item Type
  90.1-2004 Nonres 3A Roof IEAD,          ! Item Name
  ,                                       ! Object End Use Key
  ,                                       ! Quantity {dimensionless}
  49.208,                                 ! Material Cost {$}
  CostPerArea;                            ! Material Cost Units

OS:Construction,
  {176bc99a-e1ec-4909-82db-ca375e0b5ae9}, ! Handle
  90.1-2004 Nonres 3A Roof IEAD,          ! Name
  ,                                       ! Surface Rendering Name
  {ebe74ffa-effc-484f-9bed-4d08c969924d}, ! Layer 1
  {2e369f17-48a7-44bd-b459-2553abb95719}, ! Layer 2
  {88485d76-ca0d-4e43-8e9f-43806b2b1f02}; ! Layer 3

OS:Material,
  {88485d76-ca0d-4e43-8e9f-43806b2b1f02}, ! Handle
  Metal Decking,                          ! Name
  MediumSmooth,                           ! Roughness
  0.001524,                               ! Thickness {m}
  45.006,                                 ! Conductivity {W/m-K}
  7680,                                   ! Density {kg/m3}
  418.4,                                  ! Specific Heat {J/kg-K}
  0.9,                                    ! Thermal Absorptance
  0.7,                                    ! Solar Absorptance
  0.3;                                    ! Visible Absorptance

