
OS:Version,
  {e715b6c2-4ee0-4745-8008-3f2930719911}, ! Handle
  0.9.3;                                  ! Version Identifier

OS:Construction,
  {0378dc97-d69a-40ec-b555-7003c284026f}, ! Handle
  90.1-1999 Res B5 Ext Slab Unheated - 8in Slab with Carpet, ! Name
  ,                                       ! Surface Rendering Name
  {743b9b96-f84d-4704-8066-92ae84ece99e}, ! Layer 1
  {b8eca96f-3712-4614-a672-525e72088032}; ! Layer 2

OS:Material,
  {743b9b96-f84d-4704-8066-92ae84ece99e}, ! Handle
  MAT-CC05 8 HW CONCRETE,                 ! Name
  Rough,                                  ! Roughness
  0.20321,                                ! Thickness {m}
  1.311,                                  ! Conductivity {W/m-K}
  2240,                                   ! Density {kg/m3}
  836.8,                                  ! Specific Heat {J/kg-K}
  0.9,                                    ! Thermal Absorptance
  0.7,                                    ! Solar Absorptance
  0.7;                                    ! Visible Absorptance

OS:Material:NoMass,
  {b8eca96f-3712-4614-a672-525e72088032}, ! Handle
  CP02 CARPET PAD,                        ! Name
  VeryRough,                              ! Roughness
  0.21648,                                ! Thermal Resistance {m2-K/W}
  0.9,                                    ! Thermal Absorptance
  0.7,                                    ! Solar Absorptance
  0.8;                                    ! Visible Absorptance

OS:ComponentCost:LineItem,
  {38a3a9f6-1e8f-4f21-81ef-ebea8625b796}, ! Handle
  90.1-1999 Res B5 Ext Slab Unheated - 8in Slab with Carpet, ! Name
  ,                                       ! Type
  Construction,                           ! Line Item Type
  90.1-1999 Res B5 Ext Slab Unheated - 8in Slab with Carpet, ! Item Name
  ,                                       ! Object End Use Key
  ,                                       ! Quantity {dimensionless}
  45.52,                                  ! Material Cost {$}
  CostPerArea;                            ! Material Cost Units

