
OS:Version,
  {434e77f6-77ae-4aa1-bf7f-688b3aa87d34}, ! Handle
  0.9.3;                                  ! Version Identifier

OS:ComponentCost:LineItem,
  {d2a631fa-65bd-4e20-8c43-1df85f0ee35f}, ! Handle
  Title 24-2008 Nonres 3 Window Fixed,    ! Name
  ,                                       ! Type
  Construction,                           ! Line Item Type
  Title 24-2008 Nonres 3 Window Fixed,    ! Item Name
  ,                                       ! Object End Use Key
  ,                                       ! Quantity {dimensionless}
  511.59,                                 ! Material Cost {$}
  CostPerArea;                            ! Material Cost Units

OS:Construction,
  {5a454763-bb6a-4549-9bbb-1d240baea4d7}, ! Handle
  Title 24-2008 Nonres 3 Window Fixed,    ! Name
  ,                                       ! Surface Rendering Name
  {8a3bad1a-6940-45f8-92ba-fcd77d80bdd8}; ! Layer 1

OS:WindowMaterial:Glazing,
  {8a3bad1a-6940-45f8-92ba-fcd77d80bdd8}, ! Handle
  Theoretical Glass [678],                ! Name
  SpectralAverage,                        ! Optical Data Type
  ,                                       ! Window Glass Spectral Data Set Name
  0.003,                                  ! Thickness {m}
  0.40093,                                ! Solar Transmittance at Normal Incidence
  0.54907,                                ! Front Side Solar Reflectance at Normal Incidence
  0.54907,                                ! Back Side Solar Reflectance at Normal Incidence
  0.410537,                               ! Visible Transmittance at Normal Incidence
  0.539463,                               ! Front Side Visible Reflectance at Normal Incidence
  0.539463,                               ! Back Side Visible Reflectance at Normal Incidence
  0,                                      ! Infrared Transmittance at Normal Incidence
  0.9,                                    ! Front Side Infrared Hemispherical Emissivity
  0.9,                                    ! Back Side Infrared Hemispherical Emissivity
  0.0406315;                              ! Conductivity {W/m-K}

