
! 
OS:Version,
  {8503bb35-3288-4176-9c41-752f3d976c4b}, !- Handle
  1.13.0;                                 !- Version Identifier


! 
OS:Material,
  {a73e0f65-101d-4d8c-82cb-580cbf19d3fb}, !- Handle
  Aislamiento: SATE
WEBER: weber.therm placa EPS grafito 70 (0.070 m)
R: 2.2 m2K/W,                             !- Name
  MediumRough,                                 !- Roughness
  0.07,                                    !- Thickness {m}
  0.032,                                    !- Conductivity {W/m-K}
  15.0,                                    !- Density {kg/m3}
  800.0,                                    !- Specific Heat {J/kg-K}
  0.9,                                    !- Thermal Absorptance
  0.6,                                    !- Solar Absorptance
  0.6;                                    !- Visible Absorptance

