
OS:Version,
  {2aa3cce9-c98a-46e5-ba03-4dfa30c0233c}, ! Handle
  0.9.3;                                  ! Version Identifier

OS:Construction,
  {cc4f1a29-4102-42ab-bd73-2ba0eaec5325}, ! Handle
  AEDG SHC Nonres 2A Skylight Glass Skylight with Curb, ! Name
  ,                                       ! Surface Rendering Name
  {0bac59c1-7dea-4dff-add5-98c6961f7566}; ! Layer 1

OS:WindowMaterial:Glazing,
  {0bac59c1-7dea-4dff-add5-98c6961f7566}, ! Handle
  Theoretical Glass [238],                ! Name
  SpectralAverage,                        ! Optical Data Type
  ,                                       ! Window Glass Spectral Data Set Name
  0.003,                                  ! Thickness {m}
  0.334238,                               ! Solar Transmittance at Normal Incidence
  0.615762,                               ! Front Side Solar Reflectance at Normal Incidence
  0.615762,                               ! Back Side Solar Reflectance at Normal Incidence
  0.3507,                                 ! Visible Transmittance at Normal Incidence
  0.5993,                                 ! Front Side Visible Reflectance at Normal Incidence
  0.5993,                                 ! Back Side Visible Reflectance at Normal Incidence
  0,                                      ! Infrared Transmittance at Normal Incidence
  0.9,                                    ! Front Side Infrared Hemispherical Emissivity
  0.9,                                    ! Back Side Infrared Hemispherical Emissivity
  0.0414918;                              ! Conductivity {W/m-K}

OS:ComponentCost:LineItem,
  {24cf4aa4-8154-4320-82ee-c819d2f6ff62}, ! Handle
  AEDG SHC Nonres 2A Skylight Glass Skylight with Curb, ! Name
  ,                                       ! Type
  Construction,                           ! Line Item Type
  AEDG SHC Nonres 2A Skylight Glass Skylight with Curb, ! Item Name
  ,                                       ! Object End Use Key
  ,                                       ! Quantity {dimensionless}
  0,                                      ! Material Cost {$}
  CostPerArea;                            ! Material Cost Units

