
OS:Version,
  {a397895c-55e2-4df7-8ea0-ff4cf9308d1e}, ! Handle
  0.9.3;                                  ! Version Identifier

OS:Construction,
  {c0046175-e790-4e3c-8db6-a359cd8429a2}, ! Handle
  90.1-2004 Res 3C Ext Slab Unheated - 8in Slab with Carpet, ! Name
  ,                                       ! Surface Rendering Name
  {8d0bd4aa-3b57-4ed3-b4cb-96b8eba2fd6f}, ! Layer 1
  {7915c917-6071-4a3e-b5e4-f2c9e565b26c}; ! Layer 2

OS:Material,
  {8d0bd4aa-3b57-4ed3-b4cb-96b8eba2fd6f}, ! Handle
  MAT-CC05 8 HW CONCRETE,                 ! Name
  Rough,                                  ! Roughness
  0.20321,                                ! Thickness {m}
  1.311,                                  ! Conductivity {W/m-K}
  2240,                                   ! Density {kg/m3}
  836.8,                                  ! Specific Heat {J/kg-K}
  0.9,                                    ! Thermal Absorptance
  0.7,                                    ! Solar Absorptance
  0.7;                                    ! Visible Absorptance

OS:Material:NoMass,
  {7915c917-6071-4a3e-b5e4-f2c9e565b26c}, ! Handle
  CP02 CARPET PAD,                        ! Name
  VeryRough,                              ! Roughness
  0.21648,                                ! Thermal Resistance {m2-K/W}
  0.9,                                    ! Thermal Absorptance
  0.7,                                    ! Solar Absorptance
  0.8;                                    ! Visible Absorptance

OS:ComponentCost:LineItem,
  {92fce32d-3478-4aa2-a6e6-8cfbbe2a73c4}, ! Handle
  90.1-2004 Res 3C Ext Slab Unheated - 8in Slab with Carpet, ! Name
  ,                                       ! Type
  Construction,                           ! Line Item Type
  90.1-2004 Res 3C Ext Slab Unheated - 8in Slab with Carpet, ! Item Name
  ,                                       ! Object End Use Key
  ,                                       ! Quantity {dimensionless}
  45.52,                                  ! Material Cost {$}
  CostPerArea;                            ! Material Cost Units

OS:ComponentData,
  {9dc93438-a71c-4fbf-8373-ec843cbf5dc1}, ! Handle
  Component Data 1,                       ! Name
  {29ba2d31-5da8-48d8-aa9d-4e1376c068d3}, ! UUID
  {8cdd645a-5487-47c8-a4ef-e5bd2559bc34}, ! Version UUID
  1363981732,                             ! Creation Timestamp
  1363981732,                             ! Version Timestamp
  {c0046175-e790-4e3c-8db6-a359cd8429a2}, ! Name of Object 1
  {8d0bd4aa-3b57-4ed3-b4cb-96b8eba2fd6f}, ! Name of Object 2
  {7915c917-6071-4a3e-b5e4-f2c9e565b26c}, ! Name of Object 3
  {92fce32d-3478-4aa2-a6e6-8cfbbe2a73c4}; ! Name of Object 4

