
OS:Version,
  {417663d9-a002-4b1d-b919-e81643d0ad77}, ! Handle
  0.9.3;                                  ! Version Identifier

OS:Material,
  {fa02d789-3771-4d55-891f-463944df01d0}, ! Handle
  MAT-CC05 8 HW CONCRETE,                 ! Name
  Rough,                                  ! Roughness
  0.20321,                                ! Thickness {m}
  1.311,                                  ! Conductivity {W/m-K}
  2240,                                   ! Density {kg/m3}
  836.8,                                  ! Specific Heat {J/kg-K}
  0.9,                                    ! Thermal Absorptance
  0.7,                                    ! Solar Absorptance
  0.7;                                    ! Visible Absorptance

OS:Construction,
  {38bc8423-4802-4b4c-b851-078ec16498c9}, ! Handle
  90.1-2004 Res 3C Ext Slab Unheated - 8in Slab with Carpet, ! Name
  ,                                       ! Surface Rendering Name
  {fa02d789-3771-4d55-891f-463944df01d0}, ! Layer 1
  {ccc90b6e-41e4-4272-b639-f72cdb4c8296}; ! Layer 2

OS:Material:NoMass,
  {ccc90b6e-41e4-4272-b639-f72cdb4c8296}, ! Handle
  CP02 CARPET PAD,                        ! Name
  VeryRough,                              ! Roughness
  0.21648,                                ! Thermal Resistance {m2-K/W}
  0.9,                                    ! Thermal Absorptance
  0.7,                                    ! Solar Absorptance
  0.8;                                    ! Visible Absorptance

OS:ComponentCost:LineItem,
  {1c93b386-d742-4c84-a836-a750d0d93395}, ! Handle
  90.1-2004 Res 3C Ext Slab Unheated - 8in Slab with Carpet, ! Name
  ,                                       ! Type
  Construction,                           ! Line Item Type
  90.1-2004 Res 3C Ext Slab Unheated - 8in Slab with Carpet, ! Item Name
  ,                                       ! Object End Use Key
  ,                                       ! Quantity {dimensionless}
  45.52,                                  ! Material Cost {$}
  CostPerArea;                            ! Material Cost Units

