
OS:Version,
  {8c817c11-25e1-49f1-ba18-82e095fe9ce7}, ! Handle
  0.9.3;                                  ! Version Identifier

OS:Material,
  {0b9d2ff1-2c10-4ffb-bee4-b66bd9e2f5e0}, ! Handle
  1/2IN Gypsum Bottom,                    ! Name
  Smooth,                                 ! Roughness
  0.01271,                                ! Thickness {m}
  0.16,                                   ! Conductivity {W/m-K}
  784.9,                                  ! Density {kg/m3}
  830,                                    ! Specific Heat {J/kg-K}
  0.9,                                    ! Thermal Absorptance
  0.92,                                   ! Solar Absorptance
  0.92;                                   ! Visible Absorptance

OS:Material,
  {70cc455d-1236-4a08-831e-f2ee7e378d01}, ! Handle
  AtticFloor Insulation [1],              ! Name
  MediumRough,                            ! Roughness
  0.303719,                               ! Thickness {m}
  0.049,                                  ! Conductivity {W/m-K}
  265,                                    ! Density {kg/m3}
  836.8,                                  ! Specific Heat {J/kg-K}
  0.9,                                    ! Thermal Absorptance
  0.7,                                    ! Solar Absorptance
  0.7;                                    ! Visible Absorptance

OS:Material,
  {b0e56128-76ca-4039-aafe-17d73aab59db}, ! Handle
  1/2IN Gypsum Top,                       ! Name
  Smooth,                                 ! Roughness
  0.01271,                                ! Thickness {m}
  0.16,                                   ! Conductivity {W/m-K}
  784.9,                                  ! Density {kg/m3}
  830,                                    ! Specific Heat {J/kg-K}
  0.9,                                    ! Thermal Absorptance
  0.92,                                   ! Solar Absorptance
  0.92;                                   ! Visible Absorptance

OS:ComponentCost:LineItem,
  {d23d9240-5486-46a1-a166-f7f6692abcba}, ! Handle
  90.1-2004 Nonres 7A Attic Floor,        ! Name
  ,                                       ! Type
  Construction,                           ! Line Item Type
  90.1-2004 Nonres 7A Attic Floor,        ! Item Name
  ,                                       ! Object End Use Key
  ,                                       ! Quantity {dimensionless}
  35.009,                                 ! Material Cost {$}
  CostPerArea;                            ! Material Cost Units

OS:Construction,
  {c151d433-0234-45ba-85c2-83e86a3e5837}, ! Handle
  90.1-2004 Nonres 7A Attic Floor,        ! Name
  ,                                       ! Surface Rendering Name
  {b0e56128-76ca-4039-aafe-17d73aab59db}, ! Layer 1
  {70cc455d-1236-4a08-831e-f2ee7e378d01}, ! Layer 2
  {0b9d2ff1-2c10-4ffb-bee4-b66bd9e2f5e0}; ! Layer 3

