
OS:Version,
  {c0a02344-ee25-45cc-be66-5a7575b4aa88}, ! Handle
  0.9.3;                                  ! Version Identifier

OS:ComponentCost:LineItem,
  {c8daa86a-9f5c-4b47-82a3-632a440b9312}, ! Handle
  90.1-1999 Nonres B13 Int Wall,          ! Name
  ,                                       ! Type
  Construction,                           ! Line Item Type
  90.1-1999 Nonres B13 Int Wall,          ! Item Name
  ,                                       ! Object End Use Key
  ,                                       ! Quantity {dimensionless}
  0,                                      ! Material Cost {$}
  CostPerArea;                            ! Material Cost Units

OS:Construction,
  {14b0cd4d-882d-4de6-982c-2248117fff24}, ! Handle
  90.1-1999 Nonres B13 Int Wall,          ! Name
  ,                                       ! Surface Rendering Name
  {ab00bdb9-a67b-438a-b01d-2310b298a3df}, ! Layer 1
  {ab00bdb9-a67b-438a-b01d-2310b298a3df}; ! Layer 2

OS:Material,
  {ab00bdb9-a67b-438a-b01d-2310b298a3df}, ! Handle
  GP01 1/2 GYPSUM,                        ! Name
  Smooth,                                 ! Roughness
  0.01271,                                ! Thickness {m}
  0.16,                                   ! Conductivity {W/m-K}
  800,                                    ! Density {kg/m3}
  1090,                                   ! Specific Heat {J/kg-K}
  0.9,                                    ! Thermal Absorptance
  0.7,                                    ! Solar Absorptance
  0.5;                                    ! Visible Absorptance

OS:Material,
  {ca11b249-483a-411d-9838-1b73aad57116}, ! Handle
  GP01 1/2 GYPSUM 1,                      ! Name
  Smooth,                                 ! Roughness
  0.01271,                                ! Thickness {m}
  0.16,                                   ! Conductivity {W/m-K}
  800,                                    ! Density {kg/m3}
  1090,                                   ! Specific Heat {J/kg-K}
  0.9,                                    ! Thermal Absorptance
  0.7,                                    ! Solar Absorptance
  0.5;                                    ! Visible Absorptance

