
OS:Version,
  {5f1d6f96-3c67-4f55-99f8-e889a226d738}, ! Handle
  0.9.3;                                  ! Version Identifier

OS:ComponentCost:LineItem,
  {2b873850-c7a9-4ddd-b072-6525ac7a578e}, ! Handle
  90.1-2001 Nonres B4 Ext Wall Wood-Framed and Other, ! Name
  ,                                       ! Type
  Construction,                           ! Line Item Type
  90.1-2001 Nonres B4 Ext Wall Wood-Framed and Other, ! Item Name
  ,                                       ! Object End Use Key
  ,                                       ! Quantity {dimensionless}
  73.056,                                 ! Material Cost {$}
  CostPerArea;                            ! Material Cost Units

OS:Construction,
  {e3316762-16a3-4a4d-b8a9-86c9627a806a}, ! Handle
  90.1-2001 Nonres B4 Ext Wall Wood-Framed and Other, ! Name
  ,                                       ! Surface Rendering Name
  {038b59b0-755a-4de5-87e3-bc43a5eb2074}, ! Layer 1
  {634682eb-5036-4fdf-9d9e-d2d4d79d3288}, ! Layer 2
  {53fad80f-811a-4bc6-b320-884fe488d920}; ! Layer 3

OS:Material,
  {038b59b0-755a-4de5-87e3-bc43a5eb2074}, ! Handle
  Wood Siding,                            ! Name
  MediumSmooth,                           ! Roughness
  0.01,                                   ! Thickness {m}
  0.11,                                   ! Conductivity {W/m-K}
  544.62,                                 ! Density {kg/m3}
  1210,                                   ! Specific Heat {J/kg-K}
  0.9,                                    ! Thermal Absorptance
  0.78,                                   ! Solar Absorptance
  0.78;                                   ! Visible Absorptance

OS:Material,
  {634682eb-5036-4fdf-9d9e-d2d4d79d3288}, ! Handle
  Wall Insulation [2],                    ! Name
  MediumRough,                            ! Roughness
  0.0746874,                              ! Thickness {m}
  0.045,                                  ! Conductivity {W/m-K}
  265,                                    ! Density {kg/m3}
  836.8,                                  ! Specific Heat {J/kg-K}
  0.9,                                    ! Thermal Absorptance
  0.7,                                    ! Solar Absorptance
  0.7;                                    ! Visible Absorptance

OS:Material,
  {53fad80f-811a-4bc6-b320-884fe488d920}, ! Handle
  1/2IN Gypsum,                           ! Name
  Smooth,                                 ! Roughness
  0.01271,                                ! Thickness {m}
  0.16,                                   ! Conductivity {W/m-K}
  784.9,                                  ! Density {kg/m3}
  830,                                    ! Specific Heat {J/kg-K}
  0.9,                                    ! Thermal Absorptance
  0.92,                                   ! Solar Absorptance
  0.92;                                   ! Visible Absorptance

