
OS:Version,
  {4af4eb8c-71bb-4ef0-8505-8fc8395ab406}, ! Handle
  0.9.3;                                  ! Version Identifier

OS:Material,
  {f12b312a-afee-452f-9c42-2e00fb353dd4}, ! Handle
  Wood Shingles,                          ! Name
  VeryRough,                              ! Roughness
  0.0178,                                 ! Thickness {m}
  0.115,                                  ! Conductivity {W/m-K}
  513,                                    ! Density {kg/m3}
  1255,                                   ! Specific Heat {J/kg-K}
  0.9,                                    ! Thermal Absorptance
  0.78,                                   ! Solar Absorptance
  0.78;                                   ! Visible Absorptance

OS:Construction,
  {8618ce2b-7c15-4c59-8cf2-fb89677244c2}, ! Handle
  90.1-2004 Res 7A Roof Attic and Other,  ! Name
  ,                                       ! Surface Rendering Name
  {f12b312a-afee-452f-9c42-2e00fb353dd4}, ! Layer 1
  {3b02f09d-16f5-47b2-aa9d-aa305103f168}, ! Layer 2
  {422eb61a-1fb8-4f1b-868f-d9b1462f92ed}, ! Layer 3
  {9c743141-86c8-48f8-8610-32883baa5f14}; ! Layer 4

OS:Material,
  {3b02f09d-16f5-47b2-aa9d-aa305103f168}, ! Handle
  1IN Wood Decking,                       ! Name
  MediumSmooth,                           ! Roughness
  0.0254,                                 ! Thickness {m}
  0.1211,                                 ! Conductivity {W/m-K}
  593,                                    ! Density {kg/m3}
  2510,                                   ! Specific Heat {J/kg-K}
  0.9,                                    ! Thermal Absorptance
  0.78,                                   ! Solar Absorptance
  0.78;                                   ! Visible Absorptance

OS:Material,
  {422eb61a-1fb8-4f1b-868f-d9b1462f92ed}, ! Handle
  Roof Insulation [5],                    ! Name
  MediumRough,                            ! Roughness
  0.286906,                               ! Thickness {m}
  0.049,                                  ! Conductivity {W/m-K}
  265,                                    ! Density {kg/m3}
  836.8,                                  ! Specific Heat {J/kg-K}
  0.9,                                    ! Thermal Absorptance
  0.7,                                    ! Solar Absorptance
  0.7;                                    ! Visible Absorptance

OS:Material,
  {9c743141-86c8-48f8-8610-32883baa5f14}, ! Handle
  1/2IN Gypsum,                           ! Name
  Smooth,                                 ! Roughness
  0.01271,                                ! Thickness {m}
  0.16,                                   ! Conductivity {W/m-K}
  784.9,                                  ! Density {kg/m3}
  830,                                    ! Specific Heat {J/kg-K}
  0.9,                                    ! Thermal Absorptance
  0.92,                                   ! Solar Absorptance
  0.92;                                   ! Visible Absorptance

OS:ComponentCost:LineItem,
  {0f000001-c9df-42db-b558-c63ab21dda14}, ! Handle
  90.1-2004 Res 7A Roof Attic and Other,  ! Name
  ,                                       ! Type
  Construction,                           ! Line Item Type
  90.1-2004 Res 7A Roof Attic and Other,  ! Item Name
  ,                                       ! Object End Use Key
  ,                                       ! Quantity {dimensionless}
  34.757,                                 ! Material Cost {$}
  CostPerArea;                            ! Material Cost Units

