
OS:Version,
  {63927c32-98ae-4c8c-bc30-457d34b12e15}, ! Handle
  0.9.3;                                  ! Version Identifier

OS:Material,
  {f31836a0-ee44-4e3c-ac94-12f11d403d89}, ! Handle
  1/2IN Gypsum,                           ! Name
  Smooth,                                 ! Roughness
  0.01271,                                ! Thickness {m}
  0.16,                                   ! Conductivity {W/m-K}
  784.9,                                  ! Density {kg/m3}
  830,                                    ! Specific Heat {J/kg-K}
  0.9,                                    ! Thermal Absorptance
  0.92,                                   ! Solar Absorptance
  0.92;                                   ! Visible Absorptance

OS:Material,
  {a027486f-71e9-4e49-9a3c-fe8fcf63a78e}, ! Handle
  1IN Stucco,                             ! Name
  Smooth,                                 ! Roughness
  0.0253,                                 ! Thickness {m}
  0.6918,                                 ! Conductivity {W/m-K}
  1858,                                   ! Density {kg/m3}
  837,                                    ! Specific Heat {J/kg-K}
  0.9,                                    ! Thermal Absorptance
  0.92,                                   ! Solar Absorptance
  0.92;                                   ! Visible Absorptance

OS:Construction,
  {f286508b-db23-49b5-a598-78e752ad84c4}, ! Handle
  90.1-1999 Res B2 Ext Wall Mass,         ! Name
  ,                                       ! Surface Rendering Name
  {a027486f-71e9-4e49-9a3c-fe8fcf63a78e}, ! Layer 1
  {666458a8-6be6-43bb-9afc-8f9e938f8069}, ! Layer 2
  {1a136391-abe0-48f2-b001-fa5ae4261932}, ! Layer 3
  {f31836a0-ee44-4e3c-ac94-12f11d403d89}; ! Layer 4

OS:Material,
  {666458a8-6be6-43bb-9afc-8f9e938f8069}, ! Handle
  8IN Concrete HW,                        ! Name
  MediumRough,                            ! Roughness
  0.2033,                                 ! Thickness {m}
  1.7296,                                 ! Conductivity {W/m-K}
  2243,                                   ! Density {kg/m3}
  837,                                    ! Specific Heat {J/kg-K}
  0.9,                                    ! Thermal Absorptance
  0.65,                                   ! Solar Absorptance
  0.65;                                   ! Visible Absorptance

OS:Material,
  {1a136391-abe0-48f2-b001-fa5ae4261932}, ! Handle
  Wall Insulation [4],                    ! Name
  MediumRough,                            ! Roughness
  0.0338606,                              ! Thickness {m}
  0.0432,                                 ! Conductivity {W/m-K}
  91,                                     ! Density {kg/m3}
  837,                                    ! Specific Heat {J/kg-K}
  0.9,                                    ! Thermal Absorptance
  0.5,                                    ! Solar Absorptance
  0.5;                                    ! Visible Absorptance

OS:ComponentCost:LineItem,
  {06b0e7a4-12f9-4e10-bf47-2a45cf1e3206}, ! Handle
  90.1-1999 Res B2 Ext Wall Mass,         ! Name
  ,                                       ! Type
  Construction,                           ! Line Item Type
  90.1-1999 Res B2 Ext Wall Mass,         ! Item Name
  ,                                       ! Object End Use Key
  ,                                       ! Quantity {dimensionless}
  58.897,                                 ! Material Cost {$}
  CostPerArea;                            ! Material Cost Units

