
OS:Version,
  {d6c7aa23-b639-4a55-a39c-8dfd1fac6576}, ! Handle
  0.9.3;                                  ! Version Identifier

OS:WindowMaterial:Glazing,
  {13de03e7-a0df-4877-bd63-2c333bee6ccc}, ! Handle
  Theoretical Glass [110],                ! Name
  SpectralAverage,                        ! Optical Data Type
  ,                                       ! Window Glass Spectral Data Set Name
  0.003,                                  ! Thickness {m}
  0.438713,                               ! Solar Transmittance at Normal Incidence
  0.511287,                               ! Front Side Solar Reflectance at Normal Incidence
  0.511287,                               ! Back Side Solar Reflectance at Normal Incidence
  0.460166,                               ! Visible Transmittance at Normal Incidence
  0.489834,                               ! Front Side Visible Reflectance at Normal Incidence
  0.489834,                               ! Back Side Visible Reflectance at Normal Incidence
  0,                                      ! Infrared Transmittance at Normal Incidence
  0.9,                                    ! Front Side Infrared Hemispherical Emissivity
  0.9,                                    ! Back Side Infrared Hemispherical Emissivity
  0.0089223;                              ! Conductivity {W/m-K}

OS:ComponentCost:LineItem,
  {877d7e3e-2295-4fa6-aa12-f3f97ca790d9}, ! Handle
  90.1-1999 Res B24 Window Fixed,         ! Name
  ,                                       ! Type
  Construction,                           ! Line Item Type
  90.1-1999 Res B24 Window Fixed,         ! Item Name
  ,                                       ! Object End Use Key
  ,                                       ! Quantity {dimensionless}
  600.037,                                ! Material Cost {$}
  CostPerArea;                            ! Material Cost Units

OS:Construction,
  {b57e6600-177f-4882-8089-8c38eb642d85}, ! Handle
  90.1-1999 Res B24 Window Fixed,         ! Name
  ,                                       ! Surface Rendering Name
  {13de03e7-a0df-4877-bd63-2c333bee6ccc}; ! Layer 1

