
OS:Version,
  {471ad973-dc98-4cfc-b783-59a389f8424b}, ! Handle
  0.9.3;                                  ! Version Identifier

OS:Construction,
  {f432f974-e1dd-482f-acde-89c96e333116}, ! Handle
  Title 24-2008 Nonres 5 Ext Wall Mass,   ! Name
  ,                                       ! Surface Rendering Name
  {ed82dd40-68a3-4ab8-9bb6-d9cae4713f2a}, ! Layer 1
  {add720fe-8734-47ea-8a65-828bec4c1466}, ! Layer 2
  {2471b16f-bce1-42e7-ad79-0225a77f3aff}, ! Layer 3
  {74617cd8-7eaa-4b78-9ffe-b42314e45a45}; ! Layer 4

OS:Material,
  {ed82dd40-68a3-4ab8-9bb6-d9cae4713f2a}, ! Handle
  1IN Stucco,                             ! Name
  Smooth,                                 ! Roughness
  0.0253,                                 ! Thickness {m}
  0.6918,                                 ! Conductivity {W/m-K}
  1858,                                   ! Density {kg/m3}
  837,                                    ! Specific Heat {J/kg-K}
  0.9,                                    ! Thermal Absorptance
  0.92,                                   ! Solar Absorptance
  0.92;                                   ! Visible Absorptance

OS:Material,
  {add720fe-8734-47ea-8a65-828bec4c1466}, ! Handle
  8IN Concrete HW,                        ! Name
  MediumRough,                            ! Roughness
  0.2033,                                 ! Thickness {m}
  1.7296,                                 ! Conductivity {W/m-K}
  2243,                                   ! Density {kg/m3}
  837,                                    ! Specific Heat {J/kg-K}
  0.9,                                    ! Thermal Absorptance
  0.65,                                   ! Solar Absorptance
  0.65;                                   ! Visible Absorptance

OS:Material,
  {2471b16f-bce1-42e7-ad79-0225a77f3aff}, ! Handle
  Wall Insulation [158],                  ! Name
  MediumRough,                            ! Roughness
  0.0509,                                 ! Thickness {m}
  0.0432,                                 ! Conductivity {W/m-K}
  91,                                     ! Density {kg/m3}
  837,                                    ! Specific Heat {J/kg-K}
  0.9,                                    ! Thermal Absorptance
  0.5,                                    ! Solar Absorptance
  0.5;                                    ! Visible Absorptance

OS:Material,
  {74617cd8-7eaa-4b78-9ffe-b42314e45a45}, ! Handle
  1/2IN Gypsum,                           ! Name
  Smooth,                                 ! Roughness
  0.01271,                                ! Thickness {m}
  0.16,                                   ! Conductivity {W/m-K}
  784.9,                                  ! Density {kg/m3}
  830,                                    ! Specific Heat {J/kg-K}
  0.9,                                    ! Thermal Absorptance
  0.92,                                   ! Solar Absorptance
  0.92;                                   ! Visible Absorptance

OS:ComponentCost:LineItem,
  {051371c9-ac8b-493a-bba5-1c86919291ce}, ! Handle
  Title 24-2008 Nonres 5 Ext Wall Mass,   ! Name
  ,                                       ! Type
  Construction,                           ! Line Item Type
  Title 24-2008 Nonres 5 Ext Wall Mass,   ! Item Name
  ,                                       ! Object End Use Key
  ,                                       ! Quantity {dimensionless}
  211.895,                                ! Material Cost {$}
  CostPerArea;                            ! Material Cost Units

OS:ComponentData,
  {99fe4b3c-b4a6-40cf-aed3-89469339c50c}, ! Handle
  Component Data 1,                       ! Name
  {5c5b520b-7adb-4357-a3f9-ed8465775658}, ! UUID
  {e5b72cf3-f1db-4d5c-8060-636ab54434b6}, ! Version UUID
  1363982018,                             ! Creation Timestamp
  1363982018,                             ! Version Timestamp
  {f432f974-e1dd-482f-acde-89c96e333116}, ! Name of Object 1
  {ed82dd40-68a3-4ab8-9bb6-d9cae4713f2a}, ! Name of Object 2
  {add720fe-8734-47ea-8a65-828bec4c1466}, ! Name of Object 3
  {2471b16f-bce1-42e7-ad79-0225a77f3aff}, ! Name of Object 4
  {74617cd8-7eaa-4b78-9ffe-b42314e45a45}, ! Name of Object 5
  {051371c9-ac8b-493a-bba5-1c86919291ce}; ! Name of Object 6

