
OS:Version,
  {f735b510-513a-4c12-ae86-99b1a61b4fb2}, ! Handle
  0.9.3;                                  ! Version Identifier

OS:Material,
  {1cb42eb5-e31b-4b9b-a353-4487f04e54bb}, ! Handle
  Wall Insulation [158],                  ! Name
  MediumRough,                            ! Roughness
  0.0509,                                 ! Thickness {m}
  0.0432,                                 ! Conductivity {W/m-K}
  91,                                     ! Density {kg/m3}
  837,                                    ! Specific Heat {J/kg-K}
  0.9,                                    ! Thermal Absorptance
  0.5,                                    ! Solar Absorptance
  0.5;                                    ! Visible Absorptance

OS:Material,
  {a874a749-4148-4c16-bd86-f5251cc5860d}, ! Handle
  1/2IN Gypsum,                           ! Name
  Smooth,                                 ! Roughness
  0.01271,                                ! Thickness {m}
  0.16,                                   ! Conductivity {W/m-K}
  784.9,                                  ! Density {kg/m3}
  830,                                    ! Specific Heat {J/kg-K}
  0.9,                                    ! Thermal Absorptance
  0.92,                                   ! Solar Absorptance
  0.92;                                   ! Visible Absorptance

OS:ComponentCost:LineItem,
  {594d293d-709f-4063-9cdc-eea962e7bbec}, ! Handle
  Title 24-2008 Nonres 5 Ext Wall Mass,   ! Name
  ,                                       ! Type
  Construction,                           ! Line Item Type
  Title 24-2008 Nonres 5 Ext Wall Mass,   ! Item Name
  ,                                       ! Object End Use Key
  ,                                       ! Quantity {dimensionless}
  211.895,                                ! Material Cost {$}
  CostPerArea;                            ! Material Cost Units

OS:Material,
  {7d4466e0-4838-42a8-ad90-fc9ced7fdba8}, ! Handle
  8IN Concrete HW,                        ! Name
  MediumRough,                            ! Roughness
  0.2033,                                 ! Thickness {m}
  1.7296,                                 ! Conductivity {W/m-K}
  2243,                                   ! Density {kg/m3}
  837,                                    ! Specific Heat {J/kg-K}
  0.9,                                    ! Thermal Absorptance
  0.65,                                   ! Solar Absorptance
  0.65;                                   ! Visible Absorptance

OS:Construction,
  {0c507c05-a89a-4423-8332-8d7252d3ff88}, ! Handle
  Title 24-2008 Nonres 5 Ext Wall Mass,   ! Name
  ,                                       ! Surface Rendering Name
  {051d3fa9-e87b-4be5-aaa1-35dde1555f26}, ! Layer 1
  {7d4466e0-4838-42a8-ad90-fc9ced7fdba8}, ! Layer 2
  {1cb42eb5-e31b-4b9b-a353-4487f04e54bb}, ! Layer 3
  {a874a749-4148-4c16-bd86-f5251cc5860d}; ! Layer 4

OS:Material,
  {051d3fa9-e87b-4be5-aaa1-35dde1555f26}, ! Handle
  1IN Stucco,                             ! Name
  Smooth,                                 ! Roughness
  0.0253,                                 ! Thickness {m}
  0.6918,                                 ! Conductivity {W/m-K}
  1858,                                   ! Density {kg/m3}
  837,                                    ! Specific Heat {J/kg-K}
  0.9,                                    ! Thermal Absorptance
  0.92,                                   ! Solar Absorptance
  0.92;                                   ! Visible Absorptance

