
OS:Version,
  {3ffeba6c-b578-40c2-8c6c-44ee05827034}, !- Handle
  1.1.0;                                  !- Version Identifier

OS:Construction,
  {5a96167d-570e-45cd-8b54-2aa053dbd82d}, !- Handle
  Dbl Clr Low Iron 3mm/13mm Air,          !- Name
  ,                                       !- Surface Rendering Name
  {40cafebc-695f-4d56-a8ae-e34df9b4a6bc}, !- Layer 1
  {f024bbf3-412f-42a7-83ea-df5b23ab6896}, !- Layer 2
  {40cafebc-695f-4d56-a8ae-e34df9b4a6bc}; !- Layer 3

OS:WindowMaterial:Glazing,
  {40cafebc-695f-4d56-a8ae-e34df9b4a6bc}, !- Handle
  LOW IRON 3MM,                           !- Name
  SpectralAverage,                        !- Optical Data Type
  ,                                       !- Window Glass Spectral Data Set Name
  0.003,                                  !- Thickness {m}
  0.899,                                  !- Solar Transmittance at Normal Incidence
  0.079,                                  !- Front Side Solar Reflectance at Normal Incidence
  0.079,                                  !- Back Side Solar Reflectance at Normal Incidence
  0.913,                                  !- Visible Transmittance at Normal Incidence
  0.082,                                  !- Front Side Visible Reflectance at Normal Incidence
  0.082,                                  !- Back Side Visible Reflectance at Normal Incidence
  0,                                      !- Infrared Transmittance at Normal Incidence
  0.84,                                   !- Front Side Infrared Hemispherical Emissivity
  0.84,                                   !- Back Side Infrared Hemispherical Emissivity
  0.9;                                    !- Conductivity {W/m-K}

OS:WindowMaterial:Gas,
  {f024bbf3-412f-42a7-83ea-df5b23ab6896}, !- Handle
  AIR 13MM,                               !- Name
  Air,                                    !- Gas Type
  0.0127;                                 !- Thickness {m}

