
OS:Version,
  {8b5fa34b-b599-4ecf-acf3-a8f1b2c45653}, ! Handle
  0.9.3;                                  ! Version Identifier

OS:Material,
  {389c1e8a-cb87-4beb-8579-5c158f95021e}, ! Handle
  Metal Siding,                           ! Name
  Smooth,                                 ! Roughness
  0.0015,                                 ! Thickness {m}
  44.96,                                  ! Conductivity {W/m-K}
  7688.86,                                ! Density {kg/m3}
  410,                                    ! Specific Heat {J/kg-K}
  0.9,                                    ! Thermal Absorptance
  0.2,                                    ! Solar Absorptance
  0.2;                                    ! Visible Absorptance

OS:Material,
  {bffdcb13-9938-4a9a-a3ba-ac71f5789cf8}, ! Handle
  1/2IN Gypsum,                           ! Name
  Smooth,                                 ! Roughness
  0.01271,                                ! Thickness {m}
  0.16,                                   ! Conductivity {W/m-K}
  784.9,                                  ! Density {kg/m3}
  830,                                    ! Specific Heat {J/kg-K}
  0.9,                                    ! Thermal Absorptance
  0.92,                                   ! Solar Absorptance
  0.92;                                   ! Visible Absorptance

OS:Material,
  {79a6d190-0801-4c8a-978e-6d5c6e466518}, ! Handle
  Wall Insulation [9],                    ! Name
  MediumRough,                            ! Roughness
  0.128642,                               ! Thickness {m}
  0.045,                                  ! Conductivity {W/m-K}
  265,                                    ! Density {kg/m3}
  836.8,                                  ! Specific Heat {J/kg-K}
  0.9,                                    ! Thermal Absorptance
  0.7,                                    ! Solar Absorptance
  0.7;                                    ! Visible Absorptance

OS:Construction,
  {e255ed47-623f-483a-921f-153d0b46e37e}, ! Handle
  90.1-2004 Res 8A Ext Wall Metal Building, ! Name
  ,                                       ! Surface Rendering Name
  {389c1e8a-cb87-4beb-8579-5c158f95021e}, ! Layer 1
  {79a6d190-0801-4c8a-978e-6d5c6e466518}, ! Layer 2
  {bffdcb13-9938-4a9a-a3ba-ac71f5789cf8}; ! Layer 3

OS:ComponentCost:LineItem,
  {c017ce95-af27-4130-89b3-479cb8f457df}, ! Handle
  90.1-2004 Res 8A Ext Wall Metal Building, ! Name
  ,                                       ! Type
  Construction,                           ! Line Item Type
  90.1-2004 Res 8A Ext Wall Metal Building, ! Item Name
  ,                                       ! Object End Use Key
  ,                                       ! Quantity {dimensionless}
  107.698,                                ! Material Cost {$}
  CostPerArea;                            ! Material Cost Units

