
OS:Version,
  {a8311e52-6895-4ac5-a596-201e030f92a4}, ! Handle
  0.9.3;                                  ! Version Identifier

OS:Material,
  {eba908a0-c5c6-4af7-9e03-c3b4a9e474e2}, ! Handle
  METAL Door Medium 18Ga_2,               ! Name
  Smooth,                                 ! Roughness
  0.0013106,                              ! Thickness {m}
  45.3149,                                ! Conductivity {W/m-K}
  7833.03,                                ! Density {kg/m3}
  502.08,                                 ! Specific Heat {J/kg-K}
  0.8,                                    ! Thermal Absorptance
  0.5,                                    ! Solar Absorptance
  0.5;                                    ! Visible Absorptance

OS:Construction,
  {0cb3100b-f1be-4662-8440-07bd9487cad8}, ! Handle
  AEDG SHC Nonres 4B Door Swinging,       ! Name
  ,                                       ! Surface Rendering Name
  {04e773dc-a337-4bd4-ab5e-9b276893258a}, ! Layer 1
  {e9c86f87-a23f-429c-a019-93f1140e4856}, ! Layer 2
  {eba908a0-c5c6-4af7-9e03-c3b4a9e474e2}; ! Layer 3

OS:Material,
  {04e773dc-a337-4bd4-ab5e-9b276893258a}, ! Handle
  METAL Door Medium 18Ga_1,               ! Name
  Smooth,                                 ! Roughness
  0.0013106,                              ! Thickness {m}
  45.3149,                                ! Conductivity {W/m-K}
  7833.03,                                ! Density {kg/m3}
  502.08,                                 ! Specific Heat {J/kg-K}
  0.8,                                    ! Thermal Absorptance
  0.5,                                    ! Solar Absorptance
  0.5;                                    ! Visible Absorptance

OS:Material:NoMass,
  {e9c86f87-a23f-429c-a019-93f1140e4856}, ! Handle
  AIR [2],                                ! Name
  Smooth,                                 ! Roughness
  0.352085,                               ! Thermal Resistance {m2-K/W}
  0.8,                                    ! Thermal Absorptance
  0.5,                                    ! Solar Absorptance
  0.5;                                    ! Visible Absorptance

OS:ComponentCost:LineItem,
  {c6322338-060f-4104-af23-9769a4b05059}, ! Handle
  AEDG SHC Nonres 4B Door Swinging,       ! Name
  ,                                       ! Type
  Construction,                           ! Line Item Type
  AEDG SHC Nonres 4B Door Swinging,       ! Item Name
  ,                                       ! Object End Use Key
  ,                                       ! Quantity {dimensionless}
  0,                                      ! Material Cost {$}
  CostPerArea;                            ! Material Cost Units

