
OS:Version,
  {bf7657be-94d5-4611-8d3f-2dfdf530002f}, ! Handle
  0.9.3;                                  ! Version Identifier

OS:Construction,
  {cd876a15-3f12-45b8-95e8-eb2d748cba72}, ! Handle
  90.1 Windows Window Fixed 2333 Brk-Hpt-Std-ClrSpe, ! Name
  ,                                       ! Surface Rendering Name
  {807ec53b-d1bd-4a01-b482-b11c7ed816a4}; ! Layer 1

OS:WindowMaterial:Glazing,
  {807ec53b-d1bd-4a01-b482-b11c7ed816a4}, ! Handle
  Theoretical Glass [420],                ! Name
  SpectralAverage,                        ! Optical Data Type
  ,                                       ! Window Glass Spectral Data Set Name
  0.003,                                  ! Thickness {m}
  0.334493,                               ! Solar Transmittance at Normal Incidence
  0.615507,                               ! Front Side Solar Reflectance at Normal Incidence
  0.615507,                               ! Back Side Solar Reflectance at Normal Incidence
  0.489393,                               ! Visible Transmittance at Normal Incidence
  0.460607,                               ! Front Side Visible Reflectance at Normal Incidence
  0.460607,                               ! Back Side Visible Reflectance at Normal Incidence
  0,                                      ! Infrared Transmittance at Normal Incidence
  0.9,                                    ! Front Side Infrared Hemispherical Emissivity
  0.9,                                    ! Back Side Infrared Hemispherical Emissivity
  0.0144853;                              ! Conductivity {W/m-K}

OS:ComponentCost:LineItem,
  {42480f2e-ef2c-4384-b538-62887020d684}, ! Handle
  90.1 Windows Window Fixed 2333 Brk-Hpt-Std-ClrSpe, ! Name
  ,                                       ! Type
  Construction,                           ! Line Item Type
  90.1 Windows Window Fixed 2333 Brk-Hpt-Std-ClrSpe, ! Item Name
  ,                                       ! Object End Use Key
  ,                                       ! Quantity {dimensionless}
  0,                                      ! Material Cost {$}
  CostPerArea;                            ! Material Cost Units

