
OS:Version,
  {5d0cdbc4-1b2f-4549-96e7-dfe80db120dd}, ! Handle
  0.9.3;                                  ! Version Identifier

OS:Construction,
  {cfeced2e-c8fa-4ad6-92d9-ee1647de4b17}, ! Handle
  Title 24-2008 Nonres 7 Skylight Glass Skylight with Curb, ! Name
  ,                                       ! Surface Rendering Name
  {3660a6ff-6b0b-49bf-bc10-272568e26484}; ! Layer 1

OS:WindowMaterial:Glazing,
  {3660a6ff-6b0b-49bf-bc10-272568e26484}, ! Handle
  Theoretical Glass [679],                ! Name
  SpectralAverage,                        ! Optical Data Type
  ,                                       ! Window Glass Spectral Data Set Name
  0.003,                                  ! Thickness {m}
  0.387604,                               ! Solar Transmittance at Normal Incidence
  0.562396,                               ! Front Side Solar Reflectance at Normal Incidence
  0.562396,                               ! Back Side Solar Reflectance at Normal Incidence
  0.400004,                               ! Visible Transmittance at Normal Incidence
  0.549996,                               ! Front Side Visible Reflectance at Normal Incidence
  0.549996,                               ! Back Side Visible Reflectance at Normal Incidence
  0,                                      ! Infrared Transmittance at Normal Incidence
  0.91,                                   ! Front Side Infrared Hemispherical Emissivity
  0.91,                                   ! Back Side Infrared Hemispherical Emissivity
  0.387053;                               ! Conductivity {W/m-K}

OS:ComponentCost:LineItem,
  {160e5145-58e5-450a-b0cb-640a03240441}, ! Handle
  Title 24-2008 Nonres 7 Skylight Glass Skylight with Curb, ! Name
  ,                                       ! Type
  Construction,                           ! Line Item Type
  Title 24-2008 Nonres 7 Skylight Glass Skylight with Curb, ! Item Name
  ,                                       ! Object End Use Key
  ,                                       ! Quantity {dimensionless}
  501.798,                                ! Material Cost {$}
  CostPerArea;                            ! Material Cost Units

