
OS:Version,
  {ce533549-2a67-4fb2-b074-e716736a404b}, ! Handle
  0.9.3;                                  ! Version Identifier

OS:Construction,
  {088f770c-bb7a-4712-9587-f89c6623ef4f}, ! Handle
  AEDG K12 Nonres 1A Skylight without Curb, ! Name
  ,                                       ! Surface Rendering Name
  {d0df118d-1d15-42f8-92b1-951365098cb5}; ! Layer 1

OS:WindowMaterial:Glazing,
  {d0df118d-1d15-42f8-92b1-951365098cb5}, ! Handle
  Theoretical Glass [246],                ! Name
  SpectralAverage,                        ! Optical Data Type
  ,                                       ! Window Glass Spectral Data Set Name
  0.003,                                  ! Thickness {m}
  0.346211,                               ! Solar Transmittance at Normal Incidence
  0.603789,                               ! Front Side Solar Reflectance at Normal Incidence
  0.603789,                               ! Back Side Solar Reflectance at Normal Incidence
  0.457336,                               ! Visible Transmittance at Normal Incidence
  0.492664,                               ! Front Side Visible Reflectance at Normal Incidence
  0.492664,                               ! Back Side Visible Reflectance at Normal Incidence
  0,                                      ! Infrared Transmittance at Normal Incidence
  0.999,                                  ! Front Side Infrared Hemispherical Emissivity
  0.999,                                  ! Back Side Infrared Hemispherical Emissivity
  72.7123;                                ! Conductivity {W/m-K}

OS:ComponentCost:LineItem,
  {16cab670-7f5f-4f6d-a6be-d6f06a2fdf89}, ! Handle
  AEDG K12 Nonres 1A Skylight without Curb, ! Name
  ,                                       ! Type
  Construction,                           ! Line Item Type
  AEDG K12 Nonres 1A Skylight without Curb, ! Item Name
  ,                                       ! Object End Use Key
  ,                                       ! Quantity {dimensionless}
  527.515,                                ! Material Cost {$}
  CostPerArea;                            ! Material Cost Units

OS:ComponentData,
  {6148649c-e801-49b1-8674-c8922922d299}, ! Handle
  Component Data 1,                       ! Name
  {fdcdeeba-4585-4531-a903-9732dc6ff187}, ! UUID
  {1ac9a4b0-2a57-40e4-9249-6c37b35d4547}, ! Version UUID
  1363981884,                             ! Creation Timestamp
  1363981884,                             ! Version Timestamp
  {088f770c-bb7a-4712-9587-f89c6623ef4f}, ! Name of Object 1
  {d0df118d-1d15-42f8-92b1-951365098cb5}, ! Name of Object 2
  {16cab670-7f5f-4f6d-a6be-d6f06a2fdf89}; ! Name of Object 3

