
OS:Version,
  {6256d821-f80e-43e0-ae89-1798868a7743}, ! Handle
  0.9.3;                                  ! Version Identifier

OS:Construction,
  {47f098f3-dc2d-4b35-9d0a-a12515b6c583}, ! Handle
  AEDG K12 Nonres 1A Skylight without Curb, ! Name
  ,                                       ! Surface Rendering Name
  {5502d57b-43a2-473e-9d0e-cc1b603fd92e}; ! Layer 1

OS:WindowMaterial:Glazing,
  {5502d57b-43a2-473e-9d0e-cc1b603fd92e}, ! Handle
  Theoretical Glass [246],                ! Name
  SpectralAverage,                        ! Optical Data Type
  ,                                       ! Window Glass Spectral Data Set Name
  0.003,                                  ! Thickness {m}
  0.346211,                               ! Solar Transmittance at Normal Incidence
  0.603789,                               ! Front Side Solar Reflectance at Normal Incidence
  0.603789,                               ! Back Side Solar Reflectance at Normal Incidence
  0.457336,                               ! Visible Transmittance at Normal Incidence
  0.492664,                               ! Front Side Visible Reflectance at Normal Incidence
  0.492664,                               ! Back Side Visible Reflectance at Normal Incidence
  0,                                      ! Infrared Transmittance at Normal Incidence
  0.999,                                  ! Front Side Infrared Hemispherical Emissivity
  0.999,                                  ! Back Side Infrared Hemispherical Emissivity
  72.7123;                                ! Conductivity {W/m-K}

OS:ComponentCost:LineItem,
  {18bd8cd1-8058-43a1-ab82-cad244140af8}, ! Handle
  AEDG K12 Nonres 1A Skylight without Curb, ! Name
  ,                                       ! Type
  Construction,                           ! Line Item Type
  AEDG K12 Nonres 1A Skylight without Curb, ! Item Name
  ,                                       ! Object End Use Key
  ,                                       ! Quantity {dimensionless}
  527.515,                                ! Material Cost {$}
  CostPerArea;                            ! Material Cost Units

