
OS:Version,
  {df236f0b-fc4c-48ae-8bff-bcb59d2007ed}, ! Handle
  0.9.3;                                  ! Version Identifier

OS:Construction,
  {565346ef-6f0b-4e09-8322-d16fa3e64ca3}, ! Handle
  90.1-2001 Res B1 Skylight without Curb, ! Name
  ,                                       ! Surface Rendering Name
  {29401d90-72ef-47df-aa2b-bd1347dcdfd7}; ! Layer 1

OS:WindowMaterial:Glazing,
  {29401d90-72ef-47df-aa2b-bd1347dcdfd7}, ! Handle
  Theoretical Glass [63],                 ! Name
  SpectralAverage,                        ! Optical Data Type
  ,                                       ! Window Glass Spectral Data Set Name
  0.003,                                  ! Thickness {m}
  0.177255,                               ! Solar Transmittance at Normal Incidence
  0.772745,                               ! Front Side Solar Reflectance at Normal Incidence
  0.772745,                               ! Back Side Solar Reflectance at Normal Incidence
  0.176052,                               ! Visible Transmittance at Normal Incidence
  0.773948,                               ! Front Side Visible Reflectance at Normal Incidence
  0.773948,                               ! Back Side Visible Reflectance at Normal Incidence
  0,                                      ! Infrared Transmittance at Normal Incidence
  0.999,                                  ! Front Side Infrared Hemispherical Emissivity
  0.999,                                  ! Back Side Infrared Hemispherical Emissivity
  72.7123;                                ! Conductivity {W/m-K}

OS:ComponentCost:LineItem,
  {7bd1da78-a1e4-4424-8044-cb526cbd3f12}, ! Handle
  90.1-2001 Res B1 Skylight without Curb, ! Name
  ,                                       ! Type
  Construction,                           ! Line Item Type
  90.1-2001 Res B1 Skylight without Curb, ! Item Name
  ,                                       ! Object End Use Key
  ,                                       ! Quantity {dimensionless}
  539.136,                                ! Material Cost {$}
  CostPerArea;                            ! Material Cost Units

