
OS:Version,
  {96357830-ccb8-4fec-803c-25bc5ae6e725}, ! Handle
  0.9.3;                                  ! Version Identifier

OS:Material,
  {a9ef4e8d-2704-4f5f-813a-6970a6a0f4c9}, ! Handle
  1IN Wood Decking,                       ! Name
  MediumSmooth,                           ! Roughness
  0.0254,                                 ! Thickness {m}
  0.1211,                                 ! Conductivity {W/m-K}
  593,                                    ! Density {kg/m3}
  2510,                                   ! Specific Heat {J/kg-K}
  0.9,                                    ! Thermal Absorptance
  0.78,                                   ! Solar Absorptance
  0.78;                                   ! Visible Absorptance

OS:Material,
  {71b1a125-aedb-4372-b8fd-40fa237f36d9}, ! Handle
  Wood Shingles,                          ! Name
  VeryRough,                              ! Roughness
  0.0178,                                 ! Thickness {m}
  0.115,                                  ! Conductivity {W/m-K}
  513,                                    ! Density {kg/m3}
  1255,                                   ! Specific Heat {J/kg-K}
  0.9,                                    ! Thermal Absorptance
  0.78,                                   ! Solar Absorptance
  0.78;                                   ! Visible Absorptance

OS:Material,
  {d153b6f0-6372-4e19-90b7-1ce9a911d4e9}, ! Handle
  1/2IN Gypsum,                           ! Name
  Smooth,                                 ! Roughness
  0.01271,                                ! Thickness {m}
  0.16,                                   ! Conductivity {W/m-K}
  784.9,                                  ! Density {kg/m3}
  830,                                    ! Specific Heat {J/kg-K}
  0.9,                                    ! Thermal Absorptance
  0.92,                                   ! Solar Absorptance
  0.92;                                   ! Visible Absorptance

OS:Construction,
  {80aa7954-dca0-449b-921d-6708fa2730bd}, ! Handle
  90.1 Constructions Roof Attic and Other R-49.0, ! Name
  ,                                       ! Surface Rendering Name
  {71b1a125-aedb-4372-b8fd-40fa237f36d9}, ! Layer 1
  {a9ef4e8d-2704-4f5f-813a-6970a6a0f4c9}, ! Layer 2
  {3cadec02-cbd4-431e-bd24-44f98f5bc8fe}, ! Layer 3
  {d153b6f0-6372-4e19-90b7-1ce9a911d4e9}; ! Layer 4

OS:Material,
  {3cadec02-cbd4-431e-bd24-44f98f5bc8fe}, ! Handle
  Roof Insulation [77],                   ! Name
  MediumRough,                            ! Roughness
  0.377842,                               ! Thickness {m}
  0.049,                                  ! Conductivity {W/m-K}
  265,                                    ! Density {kg/m3}
  836.8,                                  ! Specific Heat {J/kg-K}
  0.9,                                    ! Thermal Absorptance
  0.7,                                    ! Solar Absorptance
  0.7;                                    ! Visible Absorptance

OS:ComponentCost:LineItem,
  {0c34811b-64ac-4f48-839e-95521c3f6733}, ! Handle
  90.1 Constructions Roof Attic and Other R-49.0, ! Name
  ,                                       ! Type
  Construction,                           ! Line Item Type
  90.1 Constructions Roof Attic and Other R-49.0, ! Item Name
  ,                                       ! Object End Use Key
  ,                                       ! Quantity {dimensionless}
  36.92,                                  ! Material Cost {$}
  CostPerArea;                            ! Material Cost Units

