
OS:Version,
  {58061a6a-ef22-4f21-a2d9-fd50fee54da7}, ! Handle
  0.9.3;                                  ! Version Identifier

OS:Material,
  {138771ce-9459-4832-934c-7c4440768363}, ! Handle
  AtticFloor Insulation [8],              ! Name
  MediumRough,                            ! Roughness
  0.253254,                               ! Thickness {m}
  0.049,                                  ! Conductivity {W/m-K}
  265,                                    ! Density {kg/m3}
  836.8,                                  ! Specific Heat {J/kg-K}
  0.9,                                    ! Thermal Absorptance
  0.7,                                    ! Solar Absorptance
  0.7;                                    ! Visible Absorptance

OS:Material,
  {e0fbcc67-6514-4225-a7bf-bd1e9238ad7f}, ! Handle
  1/2IN Gypsum Top,                       ! Name
  Smooth,                                 ! Roughness
  0.01271,                                ! Thickness {m}
  0.16,                                   ! Conductivity {W/m-K}
  784.9,                                  ! Density {kg/m3}
  830,                                    ! Specific Heat {J/kg-K}
  0.9,                                    ! Thermal Absorptance
  0.92,                                   ! Solar Absorptance
  0.92;                                   ! Visible Absorptance

OS:Material,
  {6e2547c9-0274-43c6-aa01-acad06867e68}, ! Handle
  1/2IN Gypsum Bottom,                    ! Name
  Smooth,                                 ! Roughness
  0.01271,                                ! Thickness {m}
  0.16,                                   ! Conductivity {W/m-K}
  784.9,                                  ! Density {kg/m3}
  830,                                    ! Specific Heat {J/kg-K}
  0.9,                                    ! Thermal Absorptance
  0.92,                                   ! Solar Absorptance
  0.92;                                   ! Visible Absorptance

OS:ComponentCost:LineItem,
  {d05dda23-d6ad-48f6-9ff2-e4fa81346700}, ! Handle
  AEDG SHC Nonres 4B Attic Floor,         ! Name
  ,                                       ! Type
  Construction,                           ! Line Item Type
  AEDG SHC Nonres 4B Attic Floor,         ! Item Name
  ,                                       ! Object End Use Key
  ,                                       ! Quantity {dimensionless}
  0,                                      ! Material Cost {$}
  CostPerArea;                            ! Material Cost Units

OS:Construction,
  {b13dd3d0-ae5e-45db-96fb-b7858af12b57}, ! Handle
  AEDG SHC Nonres 4B Attic Floor,         ! Name
  ,                                       ! Surface Rendering Name
  {e0fbcc67-6514-4225-a7bf-bd1e9238ad7f}, ! Layer 1
  {138771ce-9459-4832-934c-7c4440768363}, ! Layer 2
  {6e2547c9-0274-43c6-aa01-acad06867e68}; ! Layer 3

