
OS:Version,
  {093db8c0-5a05-4942-8824-688fa46876e5}, !- Handle
  1.1.0;                                  !- Version Identifier

OS:Construction,
  {1f6b33e4-7d0c-4502-b019-bfd75e6dc7ea}, !- Handle
  Dbl Ref-B-H Clr 6mm/13mm Arg,           !- Name
  ,                                       !- Surface Rendering Name
  {3677c28a-8f1a-44b9-88ae-db376aba6c9c}, !- Layer 1
  {e4a44d14-f716-4e42-a3ef-f8e24fbc5517}, !- Layer 2
  {5bbb7554-c37e-4874-bbc2-dfc604500ce2}; !- Layer 3

OS:WindowMaterial:Glazing,
  {3677c28a-8f1a-44b9-88ae-db376aba6c9c}, !- Handle
  REF B CLEAR HI 6MM,                     !- Name
  SpectralAverage,                        !- Optical Data Type
  ,                                       !- Window Glass Spectral Data Set Name
  0.006,                                  !- Thickness {m}
  0.24,                                   !- Solar Transmittance at Normal Incidence
  0.16,                                   !- Front Side Solar Reflectance at Normal Incidence
  0.32,                                   !- Back Side Solar Reflectance at Normal Incidence
  0.3,                                    !- Visible Transmittance at Normal Incidence
  0.16,                                   !- Front Side Visible Reflectance at Normal Incidence
  0.29,                                   !- Back Side Visible Reflectance at Normal Incidence
  0,                                      !- Infrared Transmittance at Normal Incidence
  0.84,                                   !- Front Side Infrared Hemispherical Emissivity
  0.6,                                    !- Back Side Infrared Hemispherical Emissivity
  0.9;                                    !- Conductivity {W/m-K}

OS:WindowMaterial:Gas,
  {e4a44d14-f716-4e42-a3ef-f8e24fbc5517}, !- Handle
  ARGON 13MM,                             !- Name
  Argon,                                  !- Gas Type
  0.0127;                                 !- Thickness {m}

OS:WindowMaterial:Glazing,
  {5bbb7554-c37e-4874-bbc2-dfc604500ce2}, !- Handle
  CLEAR 6MM,                              !- Name
  SpectralAverage,                        !- Optical Data Type
  ,                                       !- Window Glass Spectral Data Set Name
  0.006,                                  !- Thickness {m}
  0.775,                                  !- Solar Transmittance at Normal Incidence
  0.071,                                  !- Front Side Solar Reflectance at Normal Incidence
  0.071,                                  !- Back Side Solar Reflectance at Normal Incidence
  0.881,                                  !- Visible Transmittance at Normal Incidence
  0.08,                                   !- Front Side Visible Reflectance at Normal Incidence
  0.08,                                   !- Back Side Visible Reflectance at Normal Incidence
  0,                                      !- Infrared Transmittance at Normal Incidence
  0.84,                                   !- Front Side Infrared Hemispherical Emissivity
  0.84,                                   !- Back Side Infrared Hemispherical Emissivity
  0.9;                                    !- Conductivity {W/m-K}

