
! 
OS:Version,
  {9c37d538-db0d-4a47-9850-5bede7e76bd5}, !- Handle
  1.13.0;                                 !- Version Identifier


! {"nombreProductoCorto": "CLIMALIT PLUS con PLANITHERM PLANISTAR ONE F2 6 (16 argon90%) 44.2", "codigoEAN": "", "handle": "e39e3be1-f1ed-475c-a73c-52d79050906a", "g": 0.37, "tV": 0.7, "u": 1.0, "nombreProducto": "CLIMALIT PLUS con PLANITHERM PLANISTAR ONE F2 6 (16 argon90%) 44.2\nU:1.0 W/m2K - g:0.37 - Tv: 0.70"}
OS:WindowMaterial:SimpleGlazingSystem,
  {e39e3be1-f1ed-475c-a73c-52d79050906a}, !- Handle
  CLIMALIT PLUS con PLANITHERM PLANISTAR ONE F2 6 (16 argon90%) 44.2, !- Name
  1.0,                                    !- U-Factor {W/m2-K}
  0.37,                                    !- Solar Heat Gain Coefficient
  0.7;                                    !- Visible Transmittance     
  
  
OS:Construction,
  {705b75aa-c85f-4810-b2ac-fc2e450c7013}, !- Handle
  CLIMALIT PLUS con PLANITHERM PLANISTAR ONE F2 6 (16 argon90%) 44.2,                         !- Name
  ,                                       !- Surface Rendering Name
  {e39e3be1-f1ed-475c-a73c-52d79050906a}; !- Layer 1  

