
OS:Version,
  {f60d9d0f-3ba1-402d-b275-809d464f41ca}, ! Handle
  0.9.3;                                  ! Version Identifier

OS:Material,
  {db5ae0cd-ba50-464c-9bf8-c404f1d0ee49}, ! Handle
  MAT-CC05 8 HW CONCRETE,                 ! Name
  Rough,                                  ! Roughness
  0.20321,                                ! Thickness {m}
  1.311,                                  ! Conductivity {W/m-K}
  2240,                                   ! Density {kg/m3}
  836.8,                                  ! Specific Heat {J/kg-K}
  0.9,                                    ! Thermal Absorptance
  0.7,                                    ! Solar Absorptance
  0.7;                                    ! Visible Absorptance

OS:Construction,
  {affc14fd-ffde-4b9a-8f6f-f6b1d75d522e}, ! Handle
  Title 24-2008 Nonres 9 Ext Slab Unheated - 8in Slab without Carpet, ! Name
  ,                                       ! Surface Rendering Name
  {db5ae0cd-ba50-464c-9bf8-c404f1d0ee49}; ! Layer 1

OS:ComponentCost:LineItem,
  {a7951ada-fad4-4978-9dca-8b0833f6abdf}, ! Handle
  Title 24-2008 Nonres 9 Ext Slab Unheated - 8in Slab without Carpet, ! Name
  ,                                       ! Type
  Construction,                           ! Line Item Type
  Title 24-2008 Nonres 9 Ext Slab Unheated - 8in Slab without Carpet, ! Item Name
  ,                                       ! Object End Use Key
  ,                                       ! Quantity {dimensionless}
  45.52,                                  ! Material Cost {$}
  CostPerArea;                            ! Material Cost Units

