
OS:Version,
  {ef13b97d-8ab6-4c42-9a2b-6e9763714e28}, ! Handle
  0.9.3;                                  ! Version Identifier

OS:Material,
  {0680dfd8-3f9b-4249-931f-cc8d5cad0ef5}, ! Handle
  MAT-CC05 8 HW CONCRETE,                 ! Name
  Rough,                                  ! Roughness
  0.20321,                                ! Thickness {m}
  1.311,                                  ! Conductivity {W/m-K}
  2240,                                   ! Density {kg/m3}
  836.8,                                  ! Specific Heat {J/kg-K}
  0.9,                                    ! Thermal Absorptance
  0.7,                                    ! Solar Absorptance
  0.7;                                    ! Visible Absorptance

OS:Construction,
  {3cc0ae0f-a802-4b91-a882-ea81c3f8daae}, ! Handle
  90.1-1999 Res B23 Ext Slab Unheated - 8in Slab without Carpet, ! Name
  ,                                       ! Surface Rendering Name
  {0680dfd8-3f9b-4249-931f-cc8d5cad0ef5}; ! Layer 1

OS:ComponentCost:LineItem,
  {87536db6-6203-4d37-90e9-9bd0591fd395}, ! Handle
  90.1-1999 Res B23 Ext Slab Unheated - 8in Slab without Carpet, ! Name
  ,                                       ! Type
  Construction,                           ! Line Item Type
  90.1-1999 Res B23 Ext Slab Unheated - 8in Slab without Carpet, ! Item Name
  ,                                       ! Object End Use Key
  ,                                       ! Quantity {dimensionless}
  45.52,                                  ! Material Cost {$}
  CostPerArea;                            ! Material Cost Units

