
OS:Version,
  {750ff553-0a6e-4bdc-929f-6c157e8792d8}, ! Handle
  0.9.3;                                  ! Version Identifier

OS:Material,
  {5341d203-14f1-429d-aeb2-a5663ae63f10}, ! Handle
  GP01 1/2 GYPSUM 1,                      ! Name
  Smooth,                                 ! Roughness
  0.01271,                                ! Thickness {m}
  0.16,                                   ! Conductivity {W/m-K}
  800,                                    ! Density {kg/m3}
  1090,                                   ! Specific Heat {J/kg-K}
  0.9,                                    ! Thermal Absorptance
  0.7,                                    ! Solar Absorptance
  0.5;                                    ! Visible Absorptance

OS:ComponentCost:LineItem,
  {a0297132-5064-42fa-9bd8-8fdb937dfa36}, ! Handle
  AEDG K12 Nonres 3A Int Wall,            ! Name
  ,                                       ! Type
  Construction,                           ! Line Item Type
  AEDG K12 Nonres 3A Int Wall,            ! Item Name
  ,                                       ! Object End Use Key
  ,                                       ! Quantity {dimensionless}
  0,                                      ! Material Cost {$}
  CostPerArea;                            ! Material Cost Units

OS:Construction,
  {f8a0d960-e8be-4b2a-b769-c6b7aaa87bef}, ! Handle
  AEDG K12 Nonres 3A Int Wall,            ! Name
  ,                                       ! Surface Rendering Name
  {90c9a430-e4fc-4d3b-b7db-fb95027313f0}, ! Layer 1
  {90c9a430-e4fc-4d3b-b7db-fb95027313f0}; ! Layer 2

OS:Material,
  {90c9a430-e4fc-4d3b-b7db-fb95027313f0}, ! Handle
  GP01 1/2 GYPSUM,                        ! Name
  Smooth,                                 ! Roughness
  0.01271,                                ! Thickness {m}
  0.16,                                   ! Conductivity {W/m-K}
  800,                                    ! Density {kg/m3}
  1090,                                   ! Specific Heat {J/kg-K}
  0.9,                                    ! Thermal Absorptance
  0.7,                                    ! Solar Absorptance
  0.5;                                    ! Visible Absorptance

