
OS:Version,
  {32aa829d-ab3a-43d6-89fb-5a5c4098d780}, ! Handle
  0.9.3;                                  ! Version Identifier

OS:Material,
  {d6efd900-1638-4778-81ee-314817d5ff25}, ! Handle
  GP01 1/2 GYPSUM 1,                      ! Name
  Smooth,                                 ! Roughness
  0.01271,                                ! Thickness {m}
  0.16,                                   ! Conductivity {W/m-K}
  800,                                    ! Density {kg/m3}
  1090,                                   ! Specific Heat {J/kg-K}
  0.9,                                    ! Thermal Absorptance
  0.7,                                    ! Solar Absorptance
  0.5;                                    ! Visible Absorptance

OS:ComponentCost:LineItem,
  {22544215-dcdd-4909-b262-72d506fb5fa0}, ! Handle
  90.1-2004 Res 2A Int Wall,              ! Name
  ,                                       ! Type
  Construction,                           ! Line Item Type
  90.1-2004 Res 2A Int Wall,              ! Item Name
  ,                                       ! Object End Use Key
  ,                                       ! Quantity {dimensionless}
  0,                                      ! Material Cost {$}
  CostPerArea;                            ! Material Cost Units

OS:Construction,
  {5614fef6-0788-4ac1-9ae6-da12a40bd127}, ! Handle
  90.1-2004 Res 2A Int Wall,              ! Name
  ,                                       ! Surface Rendering Name
  {b0c63a83-87e4-40ae-9a55-9cd36d634608}, ! Layer 1
  {b0c63a83-87e4-40ae-9a55-9cd36d634608}; ! Layer 2

OS:Material,
  {b0c63a83-87e4-40ae-9a55-9cd36d634608}, ! Handle
  GP01 1/2 GYPSUM,                        ! Name
  Smooth,                                 ! Roughness
  0.01271,                                ! Thickness {m}
  0.16,                                   ! Conductivity {W/m-K}
  800,                                    ! Density {kg/m3}
  1090,                                   ! Specific Heat {J/kg-K}
  0.9,                                    ! Thermal Absorptance
  0.7,                                    ! Solar Absorptance
  0.5;                                    ! Visible Absorptance

