
OS:Version,
  {cfe208d0-1102-4ec0-a475-5463ac7d9add}, ! Handle
  0.9.3;                                  ! Version Identifier

OS:Construction,
  {c720b42d-10d3-47ac-af96-87fc91f96ced}, ! Handle
  90.1-2001 Res B19 Ext Slab Unheated - 4in Slab without Carpet, ! Name
  ,                                       ! Surface Rendering Name
  {0e6c8d50-f2d0-4547-9158-3ff0da81a928}; ! Layer 1

OS:Material,
  {0e6c8d50-f2d0-4547-9158-3ff0da81a928}, ! Handle
  MAT-CC05 4 HW CONCRETE,                 ! Name
  Rough,                                  ! Roughness
  0.1016,                                 ! Thickness {m}
  1.311,                                  ! Conductivity {W/m-K}
  2240,                                   ! Density {kg/m3}
  836.8,                                  ! Specific Heat {J/kg-K}
  0.9,                                    ! Thermal Absorptance
  0.7,                                    ! Solar Absorptance
  0.7;                                    ! Visible Absorptance

OS:ComponentCost:LineItem,
  {04396d75-a8fb-430b-8fb8-da91a1dabe24}, ! Handle
  90.1-2001 Res B19 Ext Slab Unheated - 4in Slab without Carpet, ! Name
  ,                                       ! Type
  Construction,                           ! Line Item Type
  90.1-2001 Res B19 Ext Slab Unheated - 4in Slab without Carpet, ! Item Name
  ,                                       ! Object End Use Key
  ,                                       ! Quantity {dimensionless}
  45.52,                                  ! Material Cost {$}
  CostPerArea;                            ! Material Cost Units

