
OS:Version,
  {ec69b530-51cc-4848-b92b-60fba7ecc254}, ! Handle
  0.9.3;                                  ! Version Identifier

OS:Construction,
  {7316f331-a43a-4524-ab0d-555ab6f0c51f}, ! Handle
  90.1-2001 Nonres B14 Roof Metal Building, ! Name
  ,                                       ! Surface Rendering Name
  {5e151411-b0b3-4084-8cbe-326925d8a275}, ! Layer 1
  {93ed41dd-48f6-4435-af61-f11375f4b1c2}; ! Layer 2

OS:Material,
  {5e151411-b0b3-4084-8cbe-326925d8a275}, ! Handle
  Metal Roofing,                          ! Name
  MediumSmooth,                           ! Roughness
  0.001524,                               ! Thickness {m}
  45.006,                                 ! Conductivity {W/m-K}
  7680,                                   ! Density {kg/m3}
  418.4,                                  ! Specific Heat {J/kg-K}
  0.9,                                    ! Thermal Absorptance
  0.7,                                    ! Solar Absorptance
  0.3;                                    ! Visible Absorptance

OS:Material,
  {93ed41dd-48f6-4435-af61-f11375f4b1c2}, ! Handle
  Roof Insulation [1],                    ! Name
  MediumRough,                            ! Roughness
  0.123533,                               ! Thickness {m}
  0.049,                                  ! Conductivity {W/m-K}
  265,                                    ! Density {kg/m3}
  836.8,                                  ! Specific Heat {J/kg-K}
  0.9,                                    ! Thermal Absorptance
  0.7,                                    ! Solar Absorptance
  0.7;                                    ! Visible Absorptance

OS:ComponentCost:LineItem,
  {dd525179-a544-428b-9a41-7daa008cf1eb}, ! Handle
  90.1-2001 Nonres B14 Roof Metal Building, ! Name
  ,                                       ! Type
  Construction,                           ! Line Item Type
  90.1-2001 Nonres B14 Roof Metal Building, ! Item Name
  ,                                       ! Object End Use Key
  ,                                       ! Quantity {dimensionless}
  38.206,                                 ! Material Cost {$}
  CostPerArea;                            ! Material Cost Units

