
OS:Version,
  {6c529166-86d3-47b8-8996-d2c00cabe610}, ! Handle
  0.9.3;                                  ! Version Identifier

OS:Construction,
  {838fed37-cc7d-4164-8c49-200daa908c79}, ! Handle
  90.1 Windows Window Fixed 2316 Brk-HptMpr-Std-Clr, ! Name
  ,                                       ! Surface Rendering Name
  {9f328538-f254-4773-b040-e7511e490523}; ! Layer 1

OS:WindowMaterial:Glazing,
  {9f328538-f254-4773-b040-e7511e490523}, ! Handle
  Theoretical Glass [472],                ! Name
  SpectralAverage,                        ! Optical Data Type
  ,                                       ! Window Glass Spectral Data Set Name
  0.003,                                  ! Thickness {m}
  0.273751,                               ! Solar Transmittance at Normal Incidence
  0.676249,                               ! Front Side Solar Reflectance at Normal Incidence
  0.676249,                               ! Back Side Solar Reflectance at Normal Incidence
  0.34081,                                ! Visible Transmittance at Normal Incidence
  0.60919,                                ! Front Side Visible Reflectance at Normal Incidence
  0.60919,                                ! Back Side Visible Reflectance at Normal Incidence
  0,                                      ! Infrared Transmittance at Normal Incidence
  0.9,                                    ! Front Side Infrared Hemispherical Emissivity
  0.9,                                    ! Back Side Infrared Hemispherical Emissivity
  0.0236463;                              ! Conductivity {W/m-K}

OS:ComponentCost:LineItem,
  {16855394-f0b3-4860-a1ab-d13f76fea2b9}, ! Handle
  90.1 Windows Window Fixed 2316 Brk-HptMpr-Std-Clr, ! Name
  ,                                       ! Type
  Construction,                           ! Line Item Type
  90.1 Windows Window Fixed 2316 Brk-HptMpr-Std-Clr, ! Item Name
  ,                                       ! Object End Use Key
  ,                                       ! Quantity {dimensionless}
  0,                                      ! Material Cost {$}
  CostPerArea;                            ! Material Cost Units

