
OS:Version,
  {498a9ca6-1267-41e7-b037-4e71b29e8215}, ! Handle
  0.9.3;                                  ! Version Identifier

OS:Construction,
  {c6153fa9-4b15-44bb-b2bd-cfb3fcfa2a9d}, ! Handle
  90.1 Windows Window Fixed 2316 Brk-HptMpr-Std-Clr, ! Name
  ,                                       ! Surface Rendering Name
  {0452efcf-8201-4b7b-bdcb-7009b6240ba3}; ! Layer 1

OS:WindowMaterial:Glazing,
  {0452efcf-8201-4b7b-bdcb-7009b6240ba3}, ! Handle
  Theoretical Glass [472],                ! Name
  SpectralAverage,                        ! Optical Data Type
  ,                                       ! Window Glass Spectral Data Set Name
  0.003,                                  ! Thickness {m}
  0.273751,                               ! Solar Transmittance at Normal Incidence
  0.676249,                               ! Front Side Solar Reflectance at Normal Incidence
  0.676249,                               ! Back Side Solar Reflectance at Normal Incidence
  0.34081,                                ! Visible Transmittance at Normal Incidence
  0.60919,                                ! Front Side Visible Reflectance at Normal Incidence
  0.60919,                                ! Back Side Visible Reflectance at Normal Incidence
  0,                                      ! Infrared Transmittance at Normal Incidence
  0.9,                                    ! Front Side Infrared Hemispherical Emissivity
  0.9,                                    ! Back Side Infrared Hemispherical Emissivity
  0.0236463;                              ! Conductivity {W/m-K}

OS:ComponentCost:LineItem,
  {8864b675-4169-4d75-9802-52616e958ee8}, ! Handle
  90.1 Windows Window Fixed 2316 Brk-HptMpr-Std-Clr, ! Name
  ,                                       ! Type
  Construction,                           ! Line Item Type
  90.1 Windows Window Fixed 2316 Brk-HptMpr-Std-Clr, ! Item Name
  ,                                       ! Object End Use Key
  ,                                       ! Quantity {dimensionless}
  0,                                      ! Material Cost {$}
  CostPerArea;                            ! Material Cost Units

OS:ComponentData,
  {e3ef6fa2-46fa-4cc6-a123-986e7902308e}, ! Handle
  Component Data 1,                       ! Name
  {bc51ed9e-a9b9-4fa7-812c-31312433597e}, ! UUID
  {10306d3d-a387-4199-9897-01dce622fc49}, ! Version UUID
  1363981021,                             ! Creation Timestamp
  1363981021,                             ! Version Timestamp
  {c6153fa9-4b15-44bb-b2bd-cfb3fcfa2a9d}, ! Name of Object 1
  {0452efcf-8201-4b7b-bdcb-7009b6240ba3}, ! Name of Object 2
  {8864b675-4169-4d75-9802-52616e958ee8}; ! Name of Object 3

