
OS:Version,
  {a26b9c02-bee2-4ae8-b4eb-e674aa016c35}, ! Handle
  0.9.3;                                  ! Version Identifier

OS:Construction,
  {b00a252d-18a1-439f-875a-aff1fabc6978}, ! Handle
  189.1-2009 Res 6B Ext Slab Unheated - 8in Slab without Carpet, ! Name
  ,                                       ! Surface Rendering Name
  {3ed8898b-e933-4768-ab16-d2283162f2de}; ! Layer 1

OS:Material,
  {3ed8898b-e933-4768-ab16-d2283162f2de}, ! Handle
  MAT-CC05 8 HW CONCRETE,                 ! Name
  Rough,                                  ! Roughness
  0.20321,                                ! Thickness {m}
  1.311,                                  ! Conductivity {W/m-K}
  2240,                                   ! Density {kg/m3}
  836.8,                                  ! Specific Heat {J/kg-K}
  0.9,                                    ! Thermal Absorptance
  0.7,                                    ! Solar Absorptance
  0.7;                                    ! Visible Absorptance

OS:ComponentCost:LineItem,
  {06c6059b-b67f-4578-86a0-ec5e1baa816a}, ! Handle
  189.1-2009 Res 6B Ext Slab Unheated - 8in Slab without Carpet, ! Name
  ,                                       ! Type
  Construction,                           ! Line Item Type
  189.1-2009 Res 6B Ext Slab Unheated - 8in Slab without Carpet, ! Item Name
  ,                                       ! Object End Use Key
  ,                                       ! Quantity {dimensionless}
  45.52,                                  ! Material Cost {$}
  CostPerArea;                            ! Material Cost Units

OS:ComponentData,
  {a5681f1e-1861-4c02-9943-15d15463e2bf}, ! Handle
  Component Data 1,                       ! Name
  {9f422496-a079-4fbb-8022-388a90189027}, ! UUID
  {e4ff6b8b-d13b-4992-a6d2-11ecd4cadb9e}, ! Version UUID
  1363980981,                             ! Creation Timestamp
  1363980981,                             ! Version Timestamp
  {b00a252d-18a1-439f-875a-aff1fabc6978}, ! Name of Object 1
  {3ed8898b-e933-4768-ab16-d2283162f2de}, ! Name of Object 2
  {06c6059b-b67f-4578-86a0-ec5e1baa816a}; ! Name of Object 3

