
OS:Version,
  {51c1a3f8-4e80-4c13-b11c-a1e7bb33ace9}, ! Handle
  0.9.3;                                  ! Version Identifier

OS:Material,
  {c7a455ed-c5db-4b06-8fff-c8be61d56b1c}, ! Handle
  MAT-CC05 8 HW CONCRETE,                 ! Name
  Rough,                                  ! Roughness
  0.20321,                                ! Thickness {m}
  1.311,                                  ! Conductivity {W/m-K}
  2240,                                   ! Density {kg/m3}
  836.8,                                  ! Specific Heat {J/kg-K}
  0.9,                                    ! Thermal Absorptance
  0.7,                                    ! Solar Absorptance
  0.7;                                    ! Visible Absorptance

OS:Construction,
  {fa7eabf9-318c-4749-b817-6cde30fc3c89}, ! Handle
  189.1-2009 Res 6B Ext Slab Unheated - 8in Slab without Carpet, ! Name
  ,                                       ! Surface Rendering Name
  {c7a455ed-c5db-4b06-8fff-c8be61d56b1c}; ! Layer 1

OS:ComponentCost:LineItem,
  {70fc7857-fe23-4e13-9be6-978bff8b453b}, ! Handle
  189.1-2009 Res 6B Ext Slab Unheated - 8in Slab without Carpet, ! Name
  ,                                       ! Type
  Construction,                           ! Line Item Type
  189.1-2009 Res 6B Ext Slab Unheated - 8in Slab without Carpet, ! Item Name
  ,                                       ! Object End Use Key
  ,                                       ! Quantity {dimensionless}
  45.52,                                  ! Material Cost {$}
  CostPerArea;                            ! Material Cost Units

