
OS:Version,
  {e5eb2e36-a418-461d-bc51-c0ffc536a30f}, ! Handle
  0.9.3;                                  ! Version Identifier

OS:Material,
  {76269cc9-fe94-4781-ad64-9bbb725cd6d0}, ! Handle
  1/2IN Gypsum,                           ! Name
  Smooth,                                 ! Roughness
  0.01271,                                ! Thickness {m}
  0.16,                                   ! Conductivity {W/m-K}
  784.9,                                  ! Density {kg/m3}
  830,                                    ! Specific Heat {J/kg-K}
  0.9,                                    ! Thermal Absorptance
  0.92,                                   ! Solar Absorptance
  0.92;                                   ! Visible Absorptance

OS:Construction,
  {275c4358-2cc9-4300-ba18-04c998d4d24a}, ! Handle
  90.1-1999 Nonres B9 Ext Wall Wood-Framed and Other, ! Name
  ,                                       ! Surface Rendering Name
  {df207984-3d85-4434-aef5-d9293b365af6}, ! Layer 1
  {8807ae1b-0589-4f3c-be87-95efb25564bc}, ! Layer 2
  {76269cc9-fe94-4781-ad64-9bbb725cd6d0}; ! Layer 3

OS:Material,
  {df207984-3d85-4434-aef5-d9293b365af6}, ! Handle
  Wood Siding,                            ! Name
  MediumSmooth,                           ! Roughness
  0.01,                                   ! Thickness {m}
  0.11,                                   ! Conductivity {W/m-K}
  544.62,                                 ! Density {kg/m3}
  1210,                                   ! Specific Heat {J/kg-K}
  0.9,                                    ! Thermal Absorptance
  0.78,                                   ! Solar Absorptance
  0.78;                                   ! Visible Absorptance

OS:Material,
  {8807ae1b-0589-4f3c-be87-95efb25564bc}, ! Handle
  Wall Insulation [2],                    ! Name
  MediumRough,                            ! Roughness
  0.0746874,                              ! Thickness {m}
  0.045,                                  ! Conductivity {W/m-K}
  265,                                    ! Density {kg/m3}
  836.8,                                  ! Specific Heat {J/kg-K}
  0.9,                                    ! Thermal Absorptance
  0.7,                                    ! Solar Absorptance
  0.7;                                    ! Visible Absorptance

OS:ComponentCost:LineItem,
  {eee42081-f839-42a3-9f9c-da75bc335e99}, ! Handle
  90.1-1999 Nonres B9 Ext Wall Wood-Framed and Other, ! Name
  ,                                       ! Type
  Construction,                           ! Line Item Type
  90.1-1999 Nonres B9 Ext Wall Wood-Framed and Other, ! Item Name
  ,                                       ! Object End Use Key
  ,                                       ! Quantity {dimensionless}
  73.056,                                 ! Material Cost {$}
  CostPerArea;                            ! Material Cost Units

