
! 
OS:Version,
  {9c37d538-db0d-4a47-9850-5bede7e76bd5}, !- Handle
  1.13.0;                                 !- Version Identifier


! {"nombreProductoCorto": "CLIMALIT PLUS con PLANITHERM XN F3 44.1 (16 argon90%)44.2", "codigoEAN": "", "handle": "d58dd7b9-88d3-45ab-a99e-1dddb9f04c6e", "g": 0.6, "tV": 0.79, "u": 1.1, "nombreProducto": "CLIMALIT PLUS con PLANITHERM XN F3 44.1 (16 argon90%)44.2\nU:1.1 W/m2K - g:0.60 - Tv: 0.79"}
OS:WindowMaterial:SimpleGlazingSystem,
  {d58dd7b9-88d3-45ab-a99e-1dddb9f04c6e}, !- Handle
  CLIMALIT PLUS con PLANITHERM XN F3 44.1 (16 argon90%)44.2, !- Name
  1.1,                                    !- U-Factor {W/m2-K}
  0.6,                                    !- Solar Heat Gain Coefficient
  0.79;                                    !- Visible Transmittance     
  
  
OS:Construction,
  {3723b13e-564c-4587-a69e-d25f81845103}, !- Handle
  CLIMALIT PLUS con PLANITHERM XN F3 44.1 (16 argon90%)44.2,                         !- Name
  ,                                       !- Surface Rendering Name
  {d58dd7b9-88d3-45ab-a99e-1dddb9f04c6e}; !- Layer 1  

