
OS:Version,
  {13f53a21-771a-48aa-8ef2-d8465831f926}, ! Handle
  0.9.3;                                  ! Version Identifier

OS:Material,
  {5da2eefb-04ab-4691-b72c-74caab1e9135}, ! Handle
  Roof Insulation [1],                    ! Name
  MediumRough,                            ! Roughness
  0.123533,                               ! Thickness {m}
  0.049,                                  ! Conductivity {W/m-K}
  265,                                    ! Density {kg/m3}
  836.8,                                  ! Specific Heat {J/kg-K}
  0.9,                                    ! Thermal Absorptance
  0.7,                                    ! Solar Absorptance
  0.7;                                    ! Visible Absorptance

OS:Construction,
  {04f25a31-77bd-4c12-9b9c-9c62aef64851}, ! Handle
  90.1-2004 Res 3C Roof Metal Building,   ! Name
  ,                                       ! Surface Rendering Name
  {bc11b1e4-ea84-4c67-a828-9048a624ecc3}, ! Layer 1
  {5da2eefb-04ab-4691-b72c-74caab1e9135}; ! Layer 2

OS:Material,
  {bc11b1e4-ea84-4c67-a828-9048a624ecc3}, ! Handle
  Metal Roofing,                          ! Name
  MediumSmooth,                           ! Roughness
  0.001524,                               ! Thickness {m}
  45.006,                                 ! Conductivity {W/m-K}
  7680,                                   ! Density {kg/m3}
  418.4,                                  ! Specific Heat {J/kg-K}
  0.9,                                    ! Thermal Absorptance
  0.7,                                    ! Solar Absorptance
  0.3;                                    ! Visible Absorptance

OS:ComponentCost:LineItem,
  {b24175cc-5177-4bf7-949d-e86a26065781}, ! Handle
  90.1-2004 Res 3C Roof Metal Building,   ! Name
  ,                                       ! Type
  Construction,                           ! Line Item Type
  90.1-2004 Res 3C Roof Metal Building,   ! Item Name
  ,                                       ! Object End Use Key
  ,                                       ! Quantity {dimensionless}
  38.206,                                 ! Material Cost {$}
  CostPerArea;                            ! Material Cost Units

