
OS:Version,
  {195386b0-1b33-4639-b59f-b2361ea3e809}, ! Handle
  0.9.3;                                  ! Version Identifier

OS:Material,
  {5e661328-9287-4b9c-be64-9c10e600270a}, ! Handle
  1IN Wood Decking,                       ! Name
  MediumSmooth,                           ! Roughness
  0.0254,                                 ! Thickness {m}
  0.1211,                                 ! Conductivity {W/m-K}
  593,                                    ! Density {kg/m3}
  2510,                                   ! Specific Heat {J/kg-K}
  0.9,                                    ! Thermal Absorptance
  0.78,                                   ! Solar Absorptance
  0.78;                                   ! Visible Absorptance

OS:ComponentCost:LineItem,
  {ad0527e9-ac49-40c4-8523-b04c93523870}, ! Handle
  90.1-2001 Nonres B8 Roof Attic and Other, ! Name
  ,                                       ! Type
  Construction,                           ! Line Item Type
  90.1-2001 Nonres B8 Roof Attic and Other, ! Item Name
  ,                                       ! Object End Use Key
  ,                                       ! Quantity {dimensionless}
  33.39,                                  ! Material Cost {$}
  CostPerArea;                            ! Material Cost Units

OS:Material,
  {2f2c204c-3a61-4b2c-98f7-89fabbfa4124}, ! Handle
  Wood Shingles,                          ! Name
  VeryRough,                              ! Roughness
  0.0178,                                 ! Thickness {m}
  0.115,                                  ! Conductivity {W/m-K}
  513,                                    ! Density {kg/m3}
  1255,                                   ! Specific Heat {J/kg-K}
  0.9,                                    ! Thermal Absorptance
  0.78,                                   ! Solar Absorptance
  0.78;                                   ! Visible Absorptance

OS:Material,
  {8f1d932e-de01-491f-bd22-95f642086762}, ! Handle
  1/2IN Gypsum,                           ! Name
  Smooth,                                 ! Roughness
  0.01271,                                ! Thickness {m}
  0.16,                                   ! Conductivity {W/m-K}
  784.9,                                  ! Density {kg/m3}
  830,                                    ! Specific Heat {J/kg-K}
  0.9,                                    ! Thermal Absorptance
  0.92,                                   ! Solar Absorptance
  0.92;                                   ! Visible Absorptance

OS:Material,
  {68cd43b2-bc9c-48dc-8d43-bcff7a95dec3}, ! Handle
  Roof Insulation [2],                    ! Name
  MediumRough,                            ! Roughness
  0.221604,                               ! Thickness {m}
  0.049,                                  ! Conductivity {W/m-K}
  265,                                    ! Density {kg/m3}
  836.8,                                  ! Specific Heat {J/kg-K}
  0.9,                                    ! Thermal Absorptance
  0.7,                                    ! Solar Absorptance
  0.7;                                    ! Visible Absorptance

OS:Construction,
  {78be70aa-abd8-4c13-a17d-5a0d304b90ea}, ! Handle
  90.1-2001 Nonres B8 Roof Attic and Other, ! Name
  ,                                       ! Surface Rendering Name
  {2f2c204c-3a61-4b2c-98f7-89fabbfa4124}, ! Layer 1
  {5e661328-9287-4b9c-be64-9c10e600270a}, ! Layer 2
  {68cd43b2-bc9c-48dc-8d43-bcff7a95dec3}, ! Layer 3
  {8f1d932e-de01-491f-bd22-95f642086762}; ! Layer 4

