
OS:Version,
  {6504907c-91e4-46a3-8eac-24dbe176d7ea}, ! Handle
  0.9.3;                                  ! Version Identifier

OS:WindowMaterial:Glazing,
  {e4d300d8-6caa-4558-8e77-713aa76b76f3}, ! Handle
  Theoretical Glass [156],                ! Name
  SpectralAverage,                        ! Optical Data Type
  ,                                       ! Window Glass Spectral Data Set Name
  0.003,                                  ! Thickness {m}
  0.63469,                                ! Solar Transmittance at Normal Incidence
  0.31531,                                ! Front Side Solar Reflectance at Normal Incidence
  0.31531,                                ! Back Side Solar Reflectance at Normal Incidence
  0.639644,                               ! Visible Transmittance at Normal Incidence
  0.310356,                               ! Front Side Visible Reflectance at Normal Incidence
  0.310356,                               ! Back Side Visible Reflectance at Normal Incidence
  0,                                      ! Infrared Transmittance at Normal Incidence
  0.9,                                    ! Front Side Infrared Hemispherical Emissivity
  0.9,                                    ! Back Side Infrared Hemispherical Emissivity
  0.00882612;                             ! Conductivity {W/m-K}

OS:Construction,
  {0ab4578e-2be6-49b9-bb84-e20d29bdeda8}, ! Handle
  90.1-2004 Res 8A Window Fixed,          ! Name
  ,                                       ! Surface Rendering Name
  {e4d300d8-6caa-4558-8e77-713aa76b76f3}; ! Layer 1

OS:ComponentCost:LineItem,
  {d652a370-03a6-4b3a-a05a-9199796db6ee}, ! Handle
  90.1-2004 Res 8A Window Fixed,          ! Name
  ,                                       ! Type
  Construction,                           ! Line Item Type
  90.1-2004 Res 8A Window Fixed,          ! Item Name
  ,                                       ! Object End Use Key
  ,                                       ! Quantity {dimensionless}
  572.599,                                ! Material Cost {$}
  CostPerArea;                            ! Material Cost Units

