
OS:Version,
  {5bdd7905-6517-4bf9-8d5d-9c0cff7b4f89}, ! Handle
  0.9.3;                                  ! Version Identifier

OS:Material,
  {c6e9e702-f848-4f1e-b0ce-405c1c784f13}, ! Handle
  1/2IN Gypsum,                           ! Name
  Smooth,                                 ! Roughness
  0.01271,                                ! Thickness {m}
  0.16,                                   ! Conductivity {W/m-K}
  784.9,                                  ! Density {kg/m3}
  830,                                    ! Specific Heat {J/kg-K}
  0.9,                                    ! Thermal Absorptance
  0.92,                                   ! Solar Absorptance
  0.92;                                   ! Visible Absorptance

OS:Material,
  {a5346494-ce2f-4a2e-947e-8f58559b06a8}, ! Handle
  Wall Insulation [41],                   ! Name
  MediumRough,                            ! Roughness
  0.140486,                               ! Thickness {m}
  0.045,                                  ! Conductivity {W/m-K}
  265,                                    ! Density {kg/m3}
  836.8,                                  ! Specific Heat {J/kg-K}
  0.9,                                    ! Thermal Absorptance
  0.7,                                    ! Solar Absorptance
  0.7;                                    ! Visible Absorptance

OS:ComponentCost:LineItem,
  {a33e778a-5db9-48a0-9ead-5e3bc46a406b}, ! Handle
  189.1-2009 Res 4B Ext Wall Wood-Framed and Other, ! Name
  ,                                       ! Type
  Construction,                           ! Line Item Type
  189.1-2009 Res 4B Ext Wall Wood-Framed and Other, ! Item Name
  ,                                       ! Object End Use Key
  ,                                       ! Quantity {dimensionless}
  80.609,                                 ! Material Cost {$}
  CostPerArea;                            ! Material Cost Units

OS:Construction,
  {334cff8c-d674-4177-b203-5ad5a5628ef0}, ! Handle
  189.1-2009 Res 4B Ext Wall Wood-Framed and Other, ! Name
  ,                                       ! Surface Rendering Name
  {c04e98ec-8203-471d-85c3-182f8ff8f0fd}, ! Layer 1
  {a5346494-ce2f-4a2e-947e-8f58559b06a8}, ! Layer 2
  {c6e9e702-f848-4f1e-b0ce-405c1c784f13}; ! Layer 3

OS:Material,
  {c04e98ec-8203-471d-85c3-182f8ff8f0fd}, ! Handle
  Wood Siding,                            ! Name
  MediumSmooth,                           ! Roughness
  0.01,                                   ! Thickness {m}
  0.11,                                   ! Conductivity {W/m-K}
  544.62,                                 ! Density {kg/m3}
  1210,                                   ! Specific Heat {J/kg-K}
  0.9,                                    ! Thermal Absorptance
  0.78,                                   ! Solar Absorptance
  0.78;                                   ! Visible Absorptance

