
OS:Version,
  {92b79e58-4fbe-43ca-af10-bc67e4813fb0}, ! Handle
  0.9.3;                                  ! Version Identifier

OS:Construction,
  {3cf3b65a-2206-48b3-a47d-b090900acaf0}, ! Handle
  90.1-2004 Nonres 3A Window Fixed,       ! Name
  ,                                       ! Surface Rendering Name
  {aba2585c-431f-4c33-9d35-586ca66fd811}; ! Layer 1

OS:WindowMaterial:Glazing,
  {aba2585c-431f-4c33-9d35-586ca66fd811}, ! Handle
  Theoretical Glass [136],                ! Name
  SpectralAverage,                        ! Optical Data Type
  ,                                       ! Window Glass Spectral Data Set Name
  0.003,                                  ! Thickness {m}
  0.255355,                               ! Solar Transmittance at Normal Incidence
  0.694645,                               ! Front Side Solar Reflectance at Normal Incidence
  0.694645,                               ! Back Side Solar Reflectance at Normal Incidence
  0.330719,                               ! Visible Transmittance at Normal Incidence
  0.619281,                               ! Front Side Visible Reflectance at Normal Incidence
  0.619281,                               ! Back Side Visible Reflectance at Normal Incidence
  0,                                      ! Infrared Transmittance at Normal Incidence
  0.9,                                    ! Front Side Infrared Hemispherical Emissivity
  0.9,                                    ! Back Side Infrared Hemispherical Emissivity
  0.0134755;                              ! Conductivity {W/m-K}

OS:ComponentCost:LineItem,
  {b61ef80e-1421-49ae-9673-435da22d973c}, ! Handle
  90.1-2004 Nonres 3A Window Fixed,       ! Name
  ,                                       ! Type
  Construction,                           ! Line Item Type
  90.1-2004 Nonres 3A Window Fixed,       ! Item Name
  ,                                       ! Object End Use Key
  ,                                       ! Quantity {dimensionless}
  560.656,                                ! Material Cost {$}
  CostPerArea;                            ! Material Cost Units

