
OS:Version,
  {f31cd262-294d-40e9-83f6-e9415f526b5e}, ! Handle
  0.9.3;                                  ! Version Identifier

OS:Construction,
  {372cb989-43a3-4f9b-a13d-fd7edb499564}, ! Handle
  90.1-2007 Nonres 3A Ext Slab Unheated - 4in Slab without Carpet, ! Name
  ,                                       ! Surface Rendering Name
  {7320b8fd-3214-45ab-9bfb-587b9e1c760c}; ! Layer 1

OS:Material,
  {7320b8fd-3214-45ab-9bfb-587b9e1c760c}, ! Handle
  MAT-CC05 4 HW CONCRETE,                 ! Name
  Rough,                                  ! Roughness
  0.1016,                                 ! Thickness {m}
  1.311,                                  ! Conductivity {W/m-K}
  2240,                                   ! Density {kg/m3}
  836.8,                                  ! Specific Heat {J/kg-K}
  0.9,                                    ! Thermal Absorptance
  0.7,                                    ! Solar Absorptance
  0.7;                                    ! Visible Absorptance

OS:ComponentCost:LineItem,
  {2f790efc-3752-411b-beda-43aabb47b1f5}, ! Handle
  90.1-2007 Nonres 3A Ext Slab Unheated - 4in Slab without Carpet, ! Name
  ,                                       ! Type
  Construction,                           ! Line Item Type
  90.1-2007 Nonres 3A Ext Slab Unheated - 4in Slab without Carpet, ! Item Name
  ,                                       ! Object End Use Key
  ,                                       ! Quantity {dimensionless}
  45.52,                                  ! Material Cost {$}
  CostPerArea;                            ! Material Cost Units

