
OS:Version,
  {81c0f753-7ad9-4fe5-a6ec-1d48f83e0109}, ! Handle
  0.9.3;                                  ! Version Identifier

OS:Construction,
  {160de9de-941d-4ecc-ac0d-4d5987c03b24}, ! Handle
  90.1-2007 Nonres 3A Ext Slab Unheated - 4in Slab without Carpet, ! Name
  ,                                       ! Surface Rendering Name
  {585903d1-d31c-422f-94bd-ccb26887d789}; ! Layer 1

OS:Material,
  {585903d1-d31c-422f-94bd-ccb26887d789}, ! Handle
  MAT-CC05 4 HW CONCRETE,                 ! Name
  Rough,                                  ! Roughness
  0.1016,                                 ! Thickness {m}
  1.311,                                  ! Conductivity {W/m-K}
  2240,                                   ! Density {kg/m3}
  836.8,                                  ! Specific Heat {J/kg-K}
  0.9,                                    ! Thermal Absorptance
  0.7,                                    ! Solar Absorptance
  0.7;                                    ! Visible Absorptance

OS:ComponentCost:LineItem,
  {76552717-2c2d-41c8-b8d3-ed75ca08e3da}, ! Handle
  90.1-2007 Nonres 3A Ext Slab Unheated - 4in Slab without Carpet, ! Name
  ,                                       ! Type
  Construction,                           ! Line Item Type
  90.1-2007 Nonres 3A Ext Slab Unheated - 4in Slab without Carpet, ! Item Name
  ,                                       ! Object End Use Key
  ,                                       ! Quantity {dimensionless}
  45.52,                                  ! Material Cost {$}
  CostPerArea;                            ! Material Cost Units

OS:ComponentData,
  {ba5c8b14-75ca-4dc1-8621-0efef2349ca1}, ! Handle
  Component Data 1,                       ! Name
  {bfb207bb-2313-4fce-aaaa-1f9d59a1888a}, ! UUID
  {c3badfbd-0b5b-4fb5-966d-5a515ea69715}, ! Version UUID
  1363981796,                             ! Creation Timestamp
  1363981796,                             ! Version Timestamp
  {160de9de-941d-4ecc-ac0d-4d5987c03b24}, ! Name of Object 1
  {585903d1-d31c-422f-94bd-ccb26887d789}, ! Name of Object 2
  {76552717-2c2d-41c8-b8d3-ed75ca08e3da}; ! Name of Object 3

