
OS:Version,
  {a34b84aa-c075-41e3-ae90-748dc2184c0e}, ! Handle
  0.9.3;                                  ! Version Identifier

OS:ComponentCost:LineItem,
  {f686c6bb-3758-4637-adc6-5dafe999fc48}, ! Handle
  90.1-2004 Nonres 7A Ext Slab Unheated - 4in Slab without Carpet, ! Name
  ,                                       ! Type
  Construction,                           ! Line Item Type
  90.1-2004 Nonres 7A Ext Slab Unheated - 4in Slab without Carpet, ! Item Name
  ,                                       ! Object End Use Key
  ,                                       ! Quantity {dimensionless}
  45.52,                                  ! Material Cost {$}
  CostPerArea;                            ! Material Cost Units

OS:Construction,
  {6c46b80b-2c36-470f-bb17-c12d1ada8bc6}, ! Handle
  90.1-2004 Nonres 7A Ext Slab Unheated - 4in Slab without Carpet, ! Name
  ,                                       ! Surface Rendering Name
  {56c957f9-198d-4d1e-96dd-e3c32c61bca3}; ! Layer 1

OS:Material,
  {56c957f9-198d-4d1e-96dd-e3c32c61bca3}, ! Handle
  MAT-CC05 4 HW CONCRETE,                 ! Name
  Rough,                                  ! Roughness
  0.1016,                                 ! Thickness {m}
  1.311,                                  ! Conductivity {W/m-K}
  2240,                                   ! Density {kg/m3}
  836.8,                                  ! Specific Heat {J/kg-K}
  0.9,                                    ! Thermal Absorptance
  0.7,                                    ! Solar Absorptance
  0.7;                                    ! Visible Absorptance

