
OS:Version,
  {db4a7898-910e-4188-a9e3-e199b8d56efa}, ! Handle
  0.9.3;                                  ! Version Identifier

OS:Material,
  {d3d2dc54-6a03-43ea-9d5e-1799432caab3}, ! Handle
  Wall Insulation [7],                    ! Name
  MediumRough,                            ! Roughness
  0.056577,                               ! Thickness {m}
  0.0432,                                 ! Conductivity {W/m-K}
  91,                                     ! Density {kg/m3}
  837,                                    ! Specific Heat {J/kg-K}
  0.9,                                    ! Thermal Absorptance
  0.5,                                    ! Solar Absorptance
  0.5;                                    ! Visible Absorptance

OS:Material,
  {bc445f97-dc08-4b32-b9eb-2879f53a9859}, ! Handle
  1/2IN Gypsum,                           ! Name
  Smooth,                                 ! Roughness
  0.01271,                                ! Thickness {m}
  0.16,                                   ! Conductivity {W/m-K}
  784.9,                                  ! Density {kg/m3}
  830,                                    ! Specific Heat {J/kg-K}
  0.9,                                    ! Thermal Absorptance
  0.92,                                   ! Solar Absorptance
  0.92;                                   ! Visible Absorptance

OS:ComponentCost:LineItem,
  {b6bf50a6-589c-49fe-90df-83ad24f70ad6}, ! Handle
  90.1-2001 Nonres B20 Ext Wall Mass,     ! Name
  ,                                       ! Type
  Construction,                           ! Line Item Type
  90.1-2001 Nonres B20 Ext Wall Mass,     ! Item Name
  ,                                       ! Object End Use Key
  ,                                       ! Quantity {dimensionless}
  63.663,                                 ! Material Cost {$}
  CostPerArea;                            ! Material Cost Units

OS:Material,
  {303b4505-0201-4e46-acd4-22990cf136e1}, ! Handle
  8IN Concrete HW,                        ! Name
  MediumRough,                            ! Roughness
  0.2033,                                 ! Thickness {m}
  1.7296,                                 ! Conductivity {W/m-K}
  2243,                                   ! Density {kg/m3}
  837,                                    ! Specific Heat {J/kg-K}
  0.9,                                    ! Thermal Absorptance
  0.65,                                   ! Solar Absorptance
  0.65;                                   ! Visible Absorptance

OS:Material,
  {93d088a8-39b2-4853-ac38-9658b606d05a}, ! Handle
  1IN Stucco,                             ! Name
  Smooth,                                 ! Roughness
  0.0253,                                 ! Thickness {m}
  0.6918,                                 ! Conductivity {W/m-K}
  1858,                                   ! Density {kg/m3}
  837,                                    ! Specific Heat {J/kg-K}
  0.9,                                    ! Thermal Absorptance
  0.92,                                   ! Solar Absorptance
  0.92;                                   ! Visible Absorptance

OS:Construction,
  {56030829-c840-45a1-81b0-bf823a6ed78c}, ! Handle
  90.1-2001 Nonres B20 Ext Wall Mass,     ! Name
  ,                                       ! Surface Rendering Name
  {93d088a8-39b2-4853-ac38-9658b606d05a}, ! Layer 1
  {303b4505-0201-4e46-acd4-22990cf136e1}, ! Layer 2
  {d3d2dc54-6a03-43ea-9d5e-1799432caab3}, ! Layer 3
  {bc445f97-dc08-4b32-b9eb-2879f53a9859}; ! Layer 4

