
! 
OS:Version,
  {8503bb35-3288-4176-9c41-752f3d976c4b}, !- Handle
  1.13.0;                                 !- Version Identifier


! 
OS:Material,
  {a96c72d9-6ef3-4c96-8bef-46ad7ec5bdea}, !- Handle
  Aislamiento: SATE
WEBER: weber.therm aislone (0.080 m)
R: 1.9 m2K/W,                             !- Name
  MediumRough,                                 !- Roughness
  0.08,                                    !- Thickness {m}
  0.042,                                    !- Conductivity {W/m-K}
  150.0,                                    !- Density {kg/m3}
  1100.0,                                    !- Specific Heat {J/kg-K}
  0.9,                                    !- Thermal Absorptance
  0.6,                                    !- Solar Absorptance
  0.6;                                    !- Visible Absorptance

