
OS:Version,
  {6c8ebfd6-553b-4ac1-8f50-eed2426c5dfc}, ! Handle
  0.9.3;                                  ! Version Identifier

OS:Material,
  {192d5198-7a81-44bb-84f0-dd77f767c8d3}, ! Handle
  Wall Insulation [26],                   ! Name
  MediumRough,                            ! Roughness
  0.205789,                               ! Thickness {m}
  0.045,                                  ! Conductivity {W/m-K}
  265,                                    ! Density {kg/m3}
  836.8,                                  ! Specific Heat {J/kg-K}
  0.9,                                    ! Thermal Absorptance
  0.7,                                    ! Solar Absorptance
  0.7;                                    ! Visible Absorptance

OS:Construction,
  {dc0637e9-9737-45bb-8a23-14b887909c78}, ! Handle
  90.1-2007 Nonres 8A Ext Wall Wood-Framed and Other, ! Name
  ,                                       ! Surface Rendering Name
  {e0df0e73-0b73-4823-8ecf-b00e06154587}, ! Layer 1
  {192d5198-7a81-44bb-84f0-dd77f767c8d3}, ! Layer 2
  {a273b65c-0b62-4e79-ba79-4a500304fdf5}; ! Layer 3

OS:Material,
  {e0df0e73-0b73-4823-8ecf-b00e06154587}, ! Handle
  Wood Siding,                            ! Name
  MediumSmooth,                           ! Roughness
  0.01,                                   ! Thickness {m}
  0.11,                                   ! Conductivity {W/m-K}
  544.62,                                 ! Density {kg/m3}
  1210,                                   ! Specific Heat {J/kg-K}
  0.9,                                    ! Thermal Absorptance
  0.78,                                   ! Solar Absorptance
  0.78;                                   ! Visible Absorptance

OS:Material,
  {a273b65c-0b62-4e79-ba79-4a500304fdf5}, ! Handle
  1/2IN Gypsum,                           ! Name
  Smooth,                                 ! Roughness
  0.01271,                                ! Thickness {m}
  0.16,                                   ! Conductivity {W/m-K}
  784.9,                                  ! Density {kg/m3}
  830,                                    ! Specific Heat {J/kg-K}
  0.9,                                    ! Thermal Absorptance
  0.92,                                   ! Solar Absorptance
  0.92;                                   ! Visible Absorptance

OS:ComponentCost:LineItem,
  {4abfe5ab-02b6-4f75-9191-3d4e83e1b4ef}, ! Handle
  90.1-2007 Nonres 8A Ext Wall Wood-Framed and Other, ! Name
  ,                                       ! Type
  Construction,                           ! Line Item Type
  90.1-2007 Nonres 8A Ext Wall Wood-Framed and Other, ! Item Name
  ,                                       ! Object End Use Key
  ,                                       ! Quantity {dimensionless}
  87.39,                                  ! Material Cost {$}
  CostPerArea;                            ! Material Cost Units

