
OS:Version,
  {e19934b1-5ea6-466c-8b1a-60124dc7f1f2}, ! Handle
  0.9.3;                                  ! Version Identifier

OS:Material,
  {e82e8bba-ae46-4792-8de8-09389040a0d9}, ! Handle
  1/2IN Gypsum,                           ! Name
  Smooth,                                 ! Roughness
  0.01271,                                ! Thickness {m}
  0.16,                                   ! Conductivity {W/m-K}
  784.9,                                  ! Density {kg/m3}
  830,                                    ! Specific Heat {J/kg-K}
  0.9,                                    ! Thermal Absorptance
  0.92,                                   ! Solar Absorptance
  0.92;                                   ! Visible Absorptance

OS:Construction,
  {b36343d4-1657-422a-9acb-2f2033efe536}, ! Handle
  Title 24-2008 Nonres 14 Ext Wall Wood-Framed and Other, ! Name
  ,                                       ! Surface Rendering Name
  {fe19b95f-31bf-41ab-9a22-6d5f91afedef}, ! Layer 1
  {203b6555-e051-4965-949f-52370f8a989f}, ! Layer 2
  {e82e8bba-ae46-4792-8de8-09389040a0d9}; ! Layer 3

OS:Material,
  {fe19b95f-31bf-41ab-9a22-6d5f91afedef}, ! Handle
  Wood Siding,                            ! Name
  MediumSmooth,                           ! Roughness
  0.01,                                   ! Thickness {m}
  0.11,                                   ! Conductivity {W/m-K}
  544.62,                                 ! Density {kg/m3}
  1210,                                   ! Specific Heat {J/kg-K}
  0.9,                                    ! Thermal Absorptance
  0.78,                                   ! Solar Absorptance
  0.78;                                   ! Visible Absorptance

OS:Material,
  {203b6555-e051-4965-949f-52370f8a989f}, ! Handle
  Wall Insulation [159],                  ! Name
  MediumRough,                            ! Roughness
  0.0812,                                 ! Thickness {m}
  0.045,                                  ! Conductivity {W/m-K}
  265,                                    ! Density {kg/m3}
  836.8,                                  ! Specific Heat {J/kg-K}
  0.9,                                    ! Thermal Absorptance
  0.7,                                    ! Solar Absorptance
  0.7;                                    ! Visible Absorptance

OS:ComponentCost:LineItem,
  {dd504791-a0bd-4c04-8270-fc1b0999c194}, ! Handle
  Title 24-2008 Nonres 14 Ext Wall Wood-Framed and Other, ! Name
  ,                                       ! Type
  Construction,                           ! Line Item Type
  Title 24-2008 Nonres 14 Ext Wall Wood-Framed and Other, ! Item Name
  ,                                       ! Object End Use Key
  ,                                       ! Quantity {dimensionless}
  140.526,                                ! Material Cost {$}
  CostPerArea;                            ! Material Cost Units

