
OS:Version,
  {9fb86c25-03f9-4534-a7c8-1cac6a3c5c17}, ! Handle
  0.9.3;                                  ! Version Identifier

OS:Construction,
  {20a42565-2649-48a5-ae04-913959927675}, ! Handle
  90.1-1999 Res B14 Window Fixed,         ! Name
  ,                                       ! Surface Rendering Name
  {39f786b3-1596-4329-a9ef-853c2a22a6d9}; ! Layer 1

OS:WindowMaterial:Glazing,
  {39f786b3-1596-4329-a9ef-853c2a22a6d9}, ! Handle
  Theoretical Glass [86],                 ! Name
  SpectralAverage,                        ! Optical Data Type
  ,                                       ! Window Glass Spectral Data Set Name
  0.003,                                  ! Thickness {m}
  0.341155,                               ! Solar Transmittance at Normal Incidence
  0.608845,                               ! Front Side Solar Reflectance at Normal Incidence
  0.608845,                               ! Back Side Solar Reflectance at Normal Incidence
  0.360158,                               ! Visible Transmittance at Normal Incidence
  0.589842,                               ! Front Side Visible Reflectance at Normal Incidence
  0.589842,                               ! Back Side Visible Reflectance at Normal Incidence
  0,                                      ! Infrared Transmittance at Normal Incidence
  0.9,                                    ! Front Side Infrared Hemispherical Emissivity
  0.9,                                    ! Back Side Infrared Hemispherical Emissivity
  0.013781;                               ! Conductivity {W/m-K}

OS:ComponentCost:LineItem,
  {923823f9-d4fd-4cdd-a54d-1d60e30ac3d2}, ! Handle
  90.1-1999 Res B14 Window Fixed,         ! Name
  ,                                       ! Type
  Construction,                           ! Line Item Type
  90.1-1999 Res B14 Window Fixed,         ! Item Name
  ,                                       ! Object End Use Key
  ,                                       ! Quantity {dimensionless}
  554.2,                                  ! Material Cost {$}
  CostPerArea;                            ! Material Cost Units

