
OS:Version,
  {bd6f4608-32ae-4a96-9935-e11e09514d14}, ! Handle
  0.9.3;                                  ! Version Identifier

OS:Construction,
  {fedd190c-1741-4a49-98ca-2c96dd7ab143}, ! Handle
  Title 24-2008 Nonres 6 Door Swinging,   ! Name
  ,                                       ! Surface Rendering Name
  {2c8488ee-78cf-4384-8a89-2341839039f7}, ! Layer 1
  {52cc7445-fcd1-48bc-991b-b2451a560596}, ! Layer 2
  {aed4788b-df3a-4c87-b55e-6fcbcaf2fe1f}; ! Layer 3

OS:Material,
  {2c8488ee-78cf-4384-8a89-2341839039f7}, ! Handle
  METAL Door Medium 18Ga_1,               ! Name
  Smooth,                                 ! Roughness
  0.0013106,                              ! Thickness {m}
  45.3149,                                ! Conductivity {W/m-K}
  7833.03,                                ! Density {kg/m3}
  502.08,                                 ! Specific Heat {J/kg-K}
  0.8,                                    ! Thermal Absorptance
  0.5,                                    ! Solar Absorptance
  0.5;                                    ! Visible Absorptance

OS:Material:NoMass,
  {52cc7445-fcd1-48bc-991b-b2451a560596}, ! Handle
  AIR [15],                               ! Name
  Smooth,                                 ! Roughness
  0.251781,                               ! Thermal Resistance {m2-K/W}
  0.8,                                    ! Thermal Absorptance
  0.5,                                    ! Solar Absorptance
  0.5;                                    ! Visible Absorptance

OS:Material,
  {aed4788b-df3a-4c87-b55e-6fcbcaf2fe1f}, ! Handle
  METAL Door Medium 18Ga_2,               ! Name
  Smooth,                                 ! Roughness
  0.0013106,                              ! Thickness {m}
  45.3149,                                ! Conductivity {W/m-K}
  7833.03,                                ! Density {kg/m3}
  502.08,                                 ! Specific Heat {J/kg-K}
  0.8,                                    ! Thermal Absorptance
  0.5,                                    ! Solar Absorptance
  0.5;                                    ! Visible Absorptance

OS:ComponentCost:LineItem,
  {893a170e-e431-4078-96a7-e1e5711c5cd9}, ! Handle
  Title 24-2008 Nonres 6 Door Swinging,   ! Name
  ,                                       ! Type
  Construction,                           ! Line Item Type
  Title 24-2008 Nonres 6 Door Swinging,   ! Item Name
  ,                                       ! Object End Use Key
  ,                                       ! Quantity {dimensionless}
  0,                                      ! Material Cost {$}
  CostPerArea;                            ! Material Cost Units

