
OS:Version,
  {e2223513-9a55-42b1-940a-b8d1d26e4cdd}, ! Handle
  0.9.3;                                  ! Version Identifier

OS:Material,
  {179bab2e-2b15-4222-93d7-1113fb9b7700}, ! Handle
  Wall Insulation [13],                   ! Name
  MediumRough,                            ! Roughness
  0.140713,                               ! Thickness {m}
  0.045,                                  ! Conductivity {W/m-K}
  265,                                    ! Density {kg/m3}
  836.8,                                  ! Specific Heat {J/kg-K}
  0.9,                                    ! Thermal Absorptance
  0.7,                                    ! Solar Absorptance
  0.7;                                    ! Visible Absorptance

OS:ComponentCost:LineItem,
  {55dac3f7-4c39-4b37-841b-9f59e1ff8046}, ! Handle
  90.1-2004 Res 7A Ext Wall Wood-Framed and Other, ! Name
  ,                                       ! Type
  Construction,                           ! Line Item Type
  90.1-2004 Res 7A Ext Wall Wood-Framed and Other, ! Item Name
  ,                                       ! Object End Use Key
  ,                                       ! Quantity {dimensionless}
  80.638,                                 ! Material Cost {$}
  CostPerArea;                            ! Material Cost Units

OS:Construction,
  {c66056d1-acef-4305-b2ec-c0b54d8b941b}, ! Handle
  90.1-2004 Res 7A Ext Wall Wood-Framed and Other, ! Name
  ,                                       ! Surface Rendering Name
  {21767993-c0ef-48f4-9c45-f8c21065fcbf}, ! Layer 1
  {179bab2e-2b15-4222-93d7-1113fb9b7700}, ! Layer 2
  {0f072580-52be-4d75-954a-723f72ef4c3b}; ! Layer 3

OS:Material,
  {21767993-c0ef-48f4-9c45-f8c21065fcbf}, ! Handle
  Wood Siding,                            ! Name
  MediumSmooth,                           ! Roughness
  0.01,                                   ! Thickness {m}
  0.11,                                   ! Conductivity {W/m-K}
  544.62,                                 ! Density {kg/m3}
  1210,                                   ! Specific Heat {J/kg-K}
  0.9,                                    ! Thermal Absorptance
  0.78,                                   ! Solar Absorptance
  0.78;                                   ! Visible Absorptance

OS:Material,
  {0f072580-52be-4d75-954a-723f72ef4c3b}, ! Handle
  1/2IN Gypsum,                           ! Name
  Smooth,                                 ! Roughness
  0.01271,                                ! Thickness {m}
  0.16,                                   ! Conductivity {W/m-K}
  784.9,                                  ! Density {kg/m3}
  830,                                    ! Specific Heat {J/kg-K}
  0.9,                                    ! Thermal Absorptance
  0.92,                                   ! Solar Absorptance
  0.92;                                   ! Visible Absorptance

