
OS:Version,
  {274d9d34-b134-4d7f-b09b-45581f49d3f7}, ! Handle
  0.9.3;                                  ! Version Identifier

OS:Construction,
  {b2f9f011-0024-4754-9c88-f35e180e2ae5}, ! Handle
  Title 24-2008 Nonres 6 Skylight Plastic Skylight with Curb, ! Name
  ,                                       ! Surface Rendering Name
  {d0417995-af6a-4c04-af4d-51a66ab875d6}; ! Layer 1

OS:WindowMaterial:Glazing,
  {d0417995-af6a-4c04-af4d-51a66ab875d6}, ! Handle
  Theoretical Glass [674],                ! Name
  SpectralAverage,                        ! Optical Data Type
  ,                                       ! Window Glass Spectral Data Set Name
  0.003,                                  ! Thickness {m}
  0.676633,                               ! Solar Transmittance at Normal Incidence
  0.273367,                               ! Front Side Solar Reflectance at Normal Incidence
  0.273367,                               ! Back Side Solar Reflectance at Normal Incidence
  0.689609,                               ! Visible Transmittance at Normal Incidence
  0.260391,                               ! Front Side Visible Reflectance at Normal Incidence
  0.260391,                               ! Back Side Visible Reflectance at Normal Incidence
  0,                                      ! Infrared Transmittance at Normal Incidence
  0.91,                                   ! Front Side Infrared Hemispherical Emissivity
  0.91,                                   ! Back Side Infrared Hemispherical Emissivity
  0.387053;                               ! Conductivity {W/m-K}

OS:ComponentCost:LineItem,
  {f70d2d3e-840b-4f93-aff9-c9e63b695564}, ! Handle
  Title 24-2008 Nonres 6 Skylight Plastic Skylight with Curb, ! Name
  ,                                       ! Type
  Construction,                           ! Line Item Type
  Title 24-2008 Nonres 6 Skylight Plastic Skylight with Curb, ! Item Name
  ,                                       ! Object End Use Key
  ,                                       ! Quantity {dimensionless}
  480.601,                                ! Material Cost {$}
  CostPerArea;                            ! Material Cost Units

OS:ComponentData,
  {670e4261-e197-4d8d-99e7-514c0755371b}, ! Handle
  Component Data 1,                       ! Name
  {54c52089-aa88-4ed2-b476-820e5519aa5b}, ! UUID
  {ec752d4e-0250-4639-8668-61b820fc9c1a}, ! Version UUID
  1363982033,                             ! Creation Timestamp
  1363982033,                             ! Version Timestamp
  {b2f9f011-0024-4754-9c88-f35e180e2ae5}, ! Name of Object 1
  {d0417995-af6a-4c04-af4d-51a66ab875d6}, ! Name of Object 2
  {f70d2d3e-840b-4f93-aff9-c9e63b695564}; ! Name of Object 3

