
OS:Version,
  {65e95d8f-b119-49a7-af48-d46fd04290ee}, ! Handle
  0.9.3;                                  ! Version Identifier

OS:Material,
  {ae039669-903d-42e6-aee8-d8fe0e259133}, ! Handle
  Metal Siding,                           ! Name
  Smooth,                                 ! Roughness
  0.0015,                                 ! Thickness {m}
  44.96,                                  ! Conductivity {W/m-K}
  7688.86,                                ! Density {kg/m3}
  410,                                    ! Specific Heat {J/kg-K}
  0.9,                                    ! Thermal Absorptance
  0.2,                                    ! Solar Absorptance
  0.2;                                    ! Visible Absorptance

OS:Material,
  {d3bbb86a-7ec2-4b4c-9a40-e6d272b0fea9}, ! Handle
  Wall Insulation,                        ! Name
  MediumRough,                            ! Roughness
  0.0598725,                              ! Thickness {m}
  0.045,                                  ! Conductivity {W/m-K}
  265,                                    ! Density {kg/m3}
  836.8,                                  ! Specific Heat {J/kg-K}
  0.9,                                    ! Thermal Absorptance
  0.7,                                    ! Solar Absorptance
  0.7;                                    ! Visible Absorptance

OS:Material,
  {f8fa20ce-e623-4151-937d-31d3f8129a61}, ! Handle
  1/2IN Gypsum,                           ! Name
  Smooth,                                 ! Roughness
  0.01271,                                ! Thickness {m}
  0.16,                                   ! Conductivity {W/m-K}
  784.9,                                  ! Density {kg/m3}
  830,                                    ! Specific Heat {J/kg-K}
  0.9,                                    ! Thermal Absorptance
  0.92,                                   ! Solar Absorptance
  0.92;                                   ! Visible Absorptance

OS:Construction,
  {766cdcab-a824-4706-a216-b1c12808adb2}, ! Handle
  90.1-2004 Nonres 5B Ext Wall Metal Building, ! Name
  ,                                       ! Surface Rendering Name
  {ae039669-903d-42e6-aee8-d8fe0e259133}, ! Layer 1
  {d3bbb86a-7ec2-4b4c-9a40-e6d272b0fea9}, ! Layer 2
  {f8fa20ce-e623-4151-937d-31d3f8129a61}; ! Layer 3

OS:ComponentCost:LineItem,
  {e023cc3b-b6e6-4ef1-905c-1191891c125a}, ! Handle
  90.1-2004 Nonres 5B Ext Wall Metal Building, ! Name
  ,                                       ! Type
  Construction,                           ! Line Item Type
  90.1-2004 Nonres 5B Ext Wall Metal Building, ! Item Name
  ,                                       ! Object End Use Key
  ,                                       ! Quantity {dimensionless}
  98.78,                                  ! Material Cost {$}
  CostPerArea;                            ! Material Cost Units

