
OS:Version,
  {968cd244-4752-48bd-bf2f-e5473cc65edd}, ! Handle
  0.9.3;                                  ! Version Identifier

OS:Material,
  {bb660269-8200-49e6-8268-7231a720bec9}, ! Handle
  Roof Insulation,                        ! Name
  MediumRough,                            ! Roughness
  0.124958,                               ! Thickness {m}
  0.049,                                  ! Conductivity {W/m-K}
  265,                                    ! Density {kg/m3}
  836.8,                                  ! Specific Heat {J/kg-K}
  0.9,                                    ! Thermal Absorptance
  0.7,                                    ! Solar Absorptance
  0.7;                                    ! Visible Absorptance

OS:Material,
  {aa1eb6af-5a8f-4978-9cfb-7bf04f386f21}, ! Handle
  Metal Decking,                          ! Name
  MediumSmooth,                           ! Roughness
  0.001524,                               ! Thickness {m}
  45.006,                                 ! Conductivity {W/m-K}
  7680,                                   ! Density {kg/m3}
  418.4,                                  ! Specific Heat {J/kg-K}
  0.9,                                    ! Thermal Absorptance
  0.7,                                    ! Solar Absorptance
  0.3;                                    ! Visible Absorptance

OS:Construction,
  {4fa80aaa-9f8f-47dc-9812-e318ce600840}, ! Handle
  90.1-2001 Nonres B17 Roof IEAD,         ! Name
  ,                                       ! Surface Rendering Name
  {ff3c74e8-b794-4e2c-b934-ed9eecf481d8}, ! Layer 1
  {bb660269-8200-49e6-8268-7231a720bec9}, ! Layer 2
  {aa1eb6af-5a8f-4978-9cfb-7bf04f386f21}; ! Layer 3

OS:Material,
  {ff3c74e8-b794-4e2c-b934-ed9eecf481d8}, ! Handle
  Roof Membrane,                          ! Name
  VeryRough,                              ! Roughness
  0.0095,                                 ! Thickness {m}
  0.16,                                   ! Conductivity {W/m-K}
  1121.29,                                ! Density {kg/m3}
  1460,                                   ! Specific Heat {J/kg-K}
  0.9,                                    ! Thermal Absorptance
  0.7,                                    ! Solar Absorptance
  0.7;                                    ! Visible Absorptance

OS:ComponentCost:LineItem,
  {a93c37c7-febc-452a-8c36-5c77a34436fa}, ! Handle
  90.1-2001 Nonres B17 Roof IEAD,         ! Name
  ,                                       ! Type
  Construction,                           ! Line Item Type
  90.1-2001 Nonres B17 Roof IEAD,         ! Item Name
  ,                                       ! Object End Use Key
  ,                                       ! Quantity {dimensionless}
  49.208,                                 ! Material Cost {$}
  CostPerArea;                            ! Material Cost Units

