
OS:Version,
  {feebd076-4561-4667-b57f-a3c6d1b8fa49}, ! Handle
  0.9.3;                                  ! Version Identifier

OS:ComponentCost:LineItem,
  {9ecc6f61-628a-411b-a95b-7492635ae00b}, ! Handle
  Title 24-2008 Nonres 16 Ext Wall Wood-Framed and Other, ! Name
  ,                                       ! Type
  Construction,                           ! Line Item Type
  Title 24-2008 Nonres 16 Ext Wall Wood-Framed and Other, ! Item Name
  ,                                       ! Object End Use Key
  ,                                       ! Quantity {dimensionless}
  140.526,                                ! Material Cost {$}
  CostPerArea;                            ! Material Cost Units

OS:Material,
  {937e329f-4b94-4109-b67b-1b8134e9acc4}, ! Handle
  Wall Insulation [159],                  ! Name
  MediumRough,                            ! Roughness
  0.0812,                                 ! Thickness {m}
  0.045,                                  ! Conductivity {W/m-K}
  265,                                    ! Density {kg/m3}
  836.8,                                  ! Specific Heat {J/kg-K}
  0.9,                                    ! Thermal Absorptance
  0.7,                                    ! Solar Absorptance
  0.7;                                    ! Visible Absorptance

OS:Material,
  {afb15546-9eb2-4d5d-9d9a-ddba96beb106}, ! Handle
  1/2IN Gypsum,                           ! Name
  Smooth,                                 ! Roughness
  0.01271,                                ! Thickness {m}
  0.16,                                   ! Conductivity {W/m-K}
  784.9,                                  ! Density {kg/m3}
  830,                                    ! Specific Heat {J/kg-K}
  0.9,                                    ! Thermal Absorptance
  0.92,                                   ! Solar Absorptance
  0.92;                                   ! Visible Absorptance

OS:Construction,
  {0f03f7c0-8894-4af7-92db-5f471625ec60}, ! Handle
  Title 24-2008 Nonres 16 Ext Wall Wood-Framed and Other, ! Name
  ,                                       ! Surface Rendering Name
  {c87ded22-7ff1-4e7a-802c-656683a98883}, ! Layer 1
  {937e329f-4b94-4109-b67b-1b8134e9acc4}, ! Layer 2
  {afb15546-9eb2-4d5d-9d9a-ddba96beb106}; ! Layer 3

OS:Material,
  {c87ded22-7ff1-4e7a-802c-656683a98883}, ! Handle
  Wood Siding,                            ! Name
  MediumSmooth,                           ! Roughness
  0.01,                                   ! Thickness {m}
  0.11,                                   ! Conductivity {W/m-K}
  544.62,                                 ! Density {kg/m3}
  1210,                                   ! Specific Heat {J/kg-K}
  0.9,                                    ! Thermal Absorptance
  0.78,                                   ! Solar Absorptance
  0.78;                                   ! Visible Absorptance

