
OS:Version,
  {bf6fd035-1191-4997-bd39-9907c2241ce1}, ! Handle
  0.9.3;                                  ! Version Identifier

OS:Material,
  {7f88c838-e17c-4f06-a49e-f2fcd0e4e472}, ! Handle
  MAT-CC05 4 HW CONCRETE,                 ! Name
  Rough,                                  ! Roughness
  0.1016,                                 ! Thickness {m}
  1.311,                                  ! Conductivity {W/m-K}
  2240,                                   ! Density {kg/m3}
  836.8,                                  ! Specific Heat {J/kg-K}
  0.9,                                    ! Thermal Absorptance
  0.7,                                    ! Solar Absorptance
  0.7;                                    ! Visible Absorptance

OS:Construction,
  {b3cb173a-b5f5-43db-aa35-3026d7cb4591}, ! Handle
  90.1-2004 Nonres 3C Ext Slab Unheated - 4in Slab without Carpet, ! Name
  ,                                       ! Surface Rendering Name
  {7f88c838-e17c-4f06-a49e-f2fcd0e4e472}; ! Layer 1

OS:ComponentCost:LineItem,
  {36255392-14ee-47a5-b9e0-45f394ddab62}, ! Handle
  90.1-2004 Nonres 3C Ext Slab Unheated - 4in Slab without Carpet, ! Name
  ,                                       ! Type
  Construction,                           ! Line Item Type
  90.1-2004 Nonres 3C Ext Slab Unheated - 4in Slab without Carpet, ! Item Name
  ,                                       ! Object End Use Key
  ,                                       ! Quantity {dimensionless}
  45.52,                                  ! Material Cost {$}
  CostPerArea;                            ! Material Cost Units

