
OS:Version,
  {02cee82e-1751-4576-8358-c379499f0cf3}, ! Handle
  0.9.3;                                  ! Version Identifier

OS:Construction,
  {d6790a8d-5f5e-4456-abb2-cc80a19fa594}, ! Handle
  90.1-2004 Nonres 3C Roof Metal Building, ! Name
  ,                                       ! Surface Rendering Name
  {5a6b0412-65d3-4ae4-b031-3f797c061899}, ! Layer 1
  {9c0f0df5-78c6-4c0a-958d-7358995b09a9}; ! Layer 2

OS:Material,
  {5a6b0412-65d3-4ae4-b031-3f797c061899}, ! Handle
  Metal Roofing,                          ! Name
  MediumSmooth,                           ! Roughness
  0.001524,                               ! Thickness {m}
  45.006,                                 ! Conductivity {W/m-K}
  7680,                                   ! Density {kg/m3}
  418.4,                                  ! Specific Heat {J/kg-K}
  0.9,                                    ! Thermal Absorptance
  0.7,                                    ! Solar Absorptance
  0.3;                                    ! Visible Absorptance

OS:Material,
  {9c0f0df5-78c6-4c0a-958d-7358995b09a9}, ! Handle
  Roof Insulation [1],                    ! Name
  MediumRough,                            ! Roughness
  0.123533,                               ! Thickness {m}
  0.049,                                  ! Conductivity {W/m-K}
  265,                                    ! Density {kg/m3}
  836.8,                                  ! Specific Heat {J/kg-K}
  0.9,                                    ! Thermal Absorptance
  0.7,                                    ! Solar Absorptance
  0.7;                                    ! Visible Absorptance

OS:ComponentCost:LineItem,
  {5b100a9d-88ec-4092-b0f7-9b1526f96a06}, ! Handle
  90.1-2004 Nonres 3C Roof Metal Building, ! Name
  ,                                       ! Type
  Construction,                           ! Line Item Type
  90.1-2004 Nonres 3C Roof Metal Building, ! Item Name
  ,                                       ! Object End Use Key
  ,                                       ! Quantity {dimensionless}
  38.206,                                 ! Material Cost {$}
  CostPerArea;                            ! Material Cost Units

