
OS:Version,
  {ae43a51e-c6df-4146-ba12-5009089e9c14}, ! Handle
  0.9.3;                                  ! Version Identifier

OS:WindowMaterial:Glazing,
  {c15b38f2-91c8-4aba-9962-bfb1b68676a2}, ! Handle
  Theoretical Glass [37],                 ! Name
  SpectralAverage,                        ! Optical Data Type
  ,                                       ! Window Glass Spectral Data Set Name
  0.003,                                  ! Thickness {m}
  0.48413,                                ! Solar Transmittance at Normal Incidence
  0.46587,                                ! Front Side Solar Reflectance at Normal Incidence
  0.46587,                                ! Back Side Solar Reflectance at Normal Incidence
  0.529698,                               ! Visible Transmittance at Normal Incidence
  0.420302,                               ! Front Side Visible Reflectance at Normal Incidence
  0.420302,                               ! Back Side Visible Reflectance at Normal Incidence
  0,                                      ! Infrared Transmittance at Normal Incidence
  0.9,                                    ! Front Side Infrared Hemispherical Emissivity
  0.9,                                    ! Back Side Infrared Hemispherical Emissivity
  0.0134755;                              ! Conductivity {W/m-K}

OS:Construction,
  {849e9c57-6306-4e6a-b3bf-a3189ddbbfca}, ! Handle
  90.1-2001 Nonres B19 Window Fixed,      ! Name
  ,                                       ! Surface Rendering Name
  {c15b38f2-91c8-4aba-9962-bfb1b68676a2}; ! Layer 1

OS:ComponentCost:LineItem,
  {d2f28cfa-a1fc-4b5f-afd6-3ccb59986e6d}, ! Handle
  90.1-2001 Nonres B19 Window Fixed,      ! Name
  ,                                       ! Type
  Construction,                           ! Line Item Type
  90.1-2001 Nonres B19 Window Fixed,      ! Item Name
  ,                                       ! Object End Use Key
  ,                                       ! Quantity {dimensionless}
  444.232,                                ! Material Cost {$}
  CostPerArea;                            ! Material Cost Units

