
OS:Version,
  {a59225ab-2271-4c41-8a73-89491a9ec982}, !- Handle
  1.1.0;                                  !- Version Identifier

OS:Construction,
  {a9cd2fdd-6867-4277-ac48-b474343fd1d3}, !- Handle
  Dbl Ref-C-H Clr 6mm/13mm Air,           !- Name
  ,                                       !- Surface Rendering Name
  {09e3238a-78cf-4e5b-b375-dc168e611252}, !- Layer 1
  {ee26adb1-e74a-4f0e-a0c2-d91154876df7}, !- Layer 2
  {c362cb9a-c701-4694-a2f3-39ac1d891126}; !- Layer 3

OS:WindowMaterial:Glazing,
  {09e3238a-78cf-4e5b-b375-dc168e611252}, !- Handle
  REF C CLEAR HI 6MM,                     !- Name
  SpectralAverage,                        !- Optical Data Type
  ,                                       !- Window Glass Spectral Data Set Name
  0.006,                                  !- Thickness {m}
  0.2,                                    !- Solar Transmittance at Normal Incidence
  0.16,                                   !- Front Side Solar Reflectance at Normal Incidence
  0.39,                                   !- Back Side Solar Reflectance at Normal Incidence
  0.22,                                   !- Visible Transmittance at Normal Incidence
  0.17,                                   !- Front Side Visible Reflectance at Normal Incidence
  0.35,                                   !- Back Side Visible Reflectance at Normal Incidence
  0,                                      !- Infrared Transmittance at Normal Incidence
  0.84,                                   !- Front Side Infrared Hemispherical Emissivity
  0.55,                                   !- Back Side Infrared Hemispherical Emissivity
  0.9;                                    !- Conductivity {W/m-K}

OS:WindowMaterial:Gas,
  {ee26adb1-e74a-4f0e-a0c2-d91154876df7}, !- Handle
  AIR 13MM,                               !- Name
  Air,                                    !- Gas Type
  0.0127;                                 !- Thickness {m}

OS:WindowMaterial:Glazing,
  {c362cb9a-c701-4694-a2f3-39ac1d891126}, !- Handle
  CLEAR 6MM,                              !- Name
  SpectralAverage,                        !- Optical Data Type
  ,                                       !- Window Glass Spectral Data Set Name
  0.006,                                  !- Thickness {m}
  0.775,                                  !- Solar Transmittance at Normal Incidence
  0.071,                                  !- Front Side Solar Reflectance at Normal Incidence
  0.071,                                  !- Back Side Solar Reflectance at Normal Incidence
  0.881,                                  !- Visible Transmittance at Normal Incidence
  0.08,                                   !- Front Side Visible Reflectance at Normal Incidence
  0.08,                                   !- Back Side Visible Reflectance at Normal Incidence
  0,                                      !- Infrared Transmittance at Normal Incidence
  0.84,                                   !- Front Side Infrared Hemispherical Emissivity
  0.84,                                   !- Back Side Infrared Hemispherical Emissivity
  0.9;                                    !- Conductivity {W/m-K}

