
OS:Version,
  {712dee89-4e72-47c8-91fe-4843be4a45f3}, ! Handle
  0.9.3;                                  ! Version Identifier

OS:Material,
  {0bd9570d-2557-4216-a11a-361f77416ec3}, ! Handle
  1/2IN Gypsum,                           ! Name
  Smooth,                                 ! Roughness
  0.01271,                                ! Thickness {m}
  0.16,                                   ! Conductivity {W/m-K}
  784.9,                                  ! Density {kg/m3}
  830,                                    ! Specific Heat {J/kg-K}
  0.9,                                    ! Thermal Absorptance
  0.92,                                   ! Solar Absorptance
  0.92;                                   ! Visible Absorptance

OS:Material,
  {4ffe0be6-209b-4fef-9826-b898f6699d74}, ! Handle
  Wall Insulation [10],                   ! Name
  MediumRough,                            ! Roughness
  0.0971136,                              ! Thickness {m}
  0.045,                                  ! Conductivity {W/m-K}
  265,                                    ! Density {kg/m3}
  836.8,                                  ! Specific Heat {J/kg-K}
  0.9,                                    ! Thermal Absorptance
  0.7,                                    ! Solar Absorptance
  0.7;                                    ! Visible Absorptance

OS:ComponentCost:LineItem,
  {9254be9b-9bad-40d8-adf7-c4a7287ce542}, ! Handle
  90.1-2004 Res 5B Ext Wall Steel-Framed, ! Name
  ,                                       ! Type
  Construction,                           ! Line Item Type
  90.1-2004 Res 5B Ext Wall Steel-Framed, ! Item Name
  ,                                       ! Object End Use Key
  ,                                       ! Quantity {dimensionless}
  94.657,                                 ! Material Cost {$}
  CostPerArea;                            ! Material Cost Units

OS:Material:NoMass,
  {69076950-4248-41b3-be6a-cca74afd7b73}, ! Handle
  MAT-SHEATH,                             ! Name
  Rough,                                  ! Roughness
  0.36256,                                ! Thermal Resistance {m2-K/W}
  0.9,                                    ! Thermal Absorptance
  0.7,                                    ! Solar Absorptance
  0.7;                                    ! Visible Absorptance

OS:Construction,
  {d313d323-a727-4116-8490-e8c963bc97a6}, ! Handle
  90.1-2004 Res 5B Ext Wall Steel-Framed, ! Name
  ,                                       ! Surface Rendering Name
  {69076950-4248-41b3-be6a-cca74afd7b73}, ! Layer 1
  {4ffe0be6-209b-4fef-9826-b898f6699d74}, ! Layer 2
  {0bd9570d-2557-4216-a11a-361f77416ec3}; ! Layer 3

