
OS:Version,
  {c36ab7ae-bd94-47eb-a87e-647252c4ed0f}, ! Handle
  0.9.3;                                  ! Version Identifier

OS:Construction,
  {dfcfe657-fa8a-422e-ae61-f378cab442b7}, ! Handle
  Title 24-2008 Nonres 1 Skylight without Curb, ! Name
  ,                                       ! Surface Rendering Name
  {ccf43966-791d-4106-991a-e4bc35748bc4}; ! Layer 1

OS:WindowMaterial:Glazing,
  {ccf43966-791d-4106-991a-e4bc35748bc4}, ! Handle
  Theoretical Glass [667],                ! Name
  SpectralAverage,                        ! Optical Data Type
  ,                                       ! Window Glass Spectral Data Set Name
  0.003,                                  ! Thickness {m}
  0.351757,                               ! Solar Transmittance at Normal Incidence
  0.598243,                               ! Front Side Solar Reflectance at Normal Incidence
  0.598243,                               ! Back Side Solar Reflectance at Normal Incidence
  0.360158,                               ! Visible Transmittance at Normal Incidence
  0.589842,                               ! Front Side Visible Reflectance at Normal Incidence
  0.589842,                               ! Back Side Visible Reflectance at Normal Incidence
  0,                                      ! Infrared Transmittance at Normal Incidence
  0.84,                                   ! Front Side Infrared Hemispherical Emissivity
  0.84,                                   ! Back Side Infrared Hemispherical Emissivity
  0.0305466;                              ! Conductivity {W/m-K}

OS:ComponentCost:LineItem,
  {9777fc94-cd7e-4ad0-81a0-5b2507caf43a}, ! Handle
  Title 24-2008 Nonres 1 Skylight without Curb, ! Name
  ,                                       ! Type
  Construction,                           ! Line Item Type
  Title 24-2008 Nonres 1 Skylight without Curb, ! Item Name
  ,                                       ! Object End Use Key
  ,                                       ! Quantity {dimensionless}
  529.667,                                ! Material Cost {$}
  CostPerArea;                            ! Material Cost Units

