
OS:Version,
  {93352282-a758-4c3b-8e1a-fde017ba749e}, ! Handle
  0.9.3;                                  ! Version Identifier

OS:Construction,
  {716078b8-ec77-4096-8f55-249a1a0892cb}, ! Handle
  90.1-2001 Res B16 Ext Wall Wood-Framed and Other, ! Name
  ,                                       ! Surface Rendering Name
  {0ed767ba-c914-4d57-97fb-6cffa1e02181}, ! Layer 1
  {946f069c-166c-4283-adfd-b6f36f3ecf5d}, ! Layer 2
  {c1a15b80-4bba-4f14-a751-7dd1680dc91b}; ! Layer 3

OS:Material,
  {0ed767ba-c914-4d57-97fb-6cffa1e02181}, ! Handle
  Wood Siding,                            ! Name
  MediumSmooth,                           ! Roughness
  0.01,                                   ! Thickness {m}
  0.11,                                   ! Conductivity {W/m-K}
  544.62,                                 ! Density {kg/m3}
  1210,                                   ! Specific Heat {J/kg-K}
  0.9,                                    ! Thermal Absorptance
  0.78,                                   ! Solar Absorptance
  0.78;                                   ! Visible Absorptance

OS:Material,
  {946f069c-166c-4283-adfd-b6f36f3ecf5d}, ! Handle
  Wall Insulation [11],                   ! Name
  MediumRough,                            ! Roughness
  0.109279,                               ! Thickness {m}
  0.045,                                  ! Conductivity {W/m-K}
  265,                                    ! Density {kg/m3}
  836.8,                                  ! Specific Heat {J/kg-K}
  0.9,                                    ! Thermal Absorptance
  0.7,                                    ! Solar Absorptance
  0.7;                                    ! Visible Absorptance

OS:Material,
  {c1a15b80-4bba-4f14-a751-7dd1680dc91b}, ! Handle
  1/2IN Gypsum,                           ! Name
  Smooth,                                 ! Roughness
  0.01271,                                ! Thickness {m}
  0.16,                                   ! Conductivity {W/m-K}
  784.9,                                  ! Density {kg/m3}
  830,                                    ! Specific Heat {J/kg-K}
  0.9,                                    ! Thermal Absorptance
  0.92,                                   ! Solar Absorptance
  0.92;                                   ! Visible Absorptance

OS:ComponentCost:LineItem,
  {c3998bd8-fd9a-449b-8a29-05a8543bc94c}, ! Handle
  90.1-2001 Res B16 Ext Wall Wood-Framed and Other, ! Name
  ,                                       ! Type
  Construction,                           ! Line Item Type
  90.1-2001 Res B16 Ext Wall Wood-Framed and Other, ! Item Name
  ,                                       ! Object End Use Key
  ,                                       ! Quantity {dimensionless}
  77.608,                                 ! Material Cost {$}
  CostPerArea;                            ! Material Cost Units

OS:ComponentData,
  {140c5c1b-fcaf-4ba7-bc6a-4023ab9e343f}, ! Handle
  Component Data 1,                       ! Name
  {e331e209-c025-4290-8845-f1a8a4b6ab9a}, ! UUID
  {801f2153-51bc-4738-a4d7-3813362374bc}, ! Version UUID
  1363981544,                             ! Creation Timestamp
  1363981544,                             ! Version Timestamp
  {716078b8-ec77-4096-8f55-249a1a0892cb}, ! Name of Object 1
  {0ed767ba-c914-4d57-97fb-6cffa1e02181}, ! Name of Object 2
  {946f069c-166c-4283-adfd-b6f36f3ecf5d}, ! Name of Object 3
  {c1a15b80-4bba-4f14-a751-7dd1680dc91b}, ! Name of Object 4
  {c3998bd8-fd9a-449b-8a29-05a8543bc94c}; ! Name of Object 5

