
OS:Version,
  {6236ed04-86d0-4705-a15b-3cf5f0f77f57}, ! Handle
  0.9.3;                                  ! Version Identifier

OS:Construction,
  {4eeb7ef3-4f7c-4b15-844b-6395276727e6}, ! Handle
  90.1-1999 Nonres B3 Roof IEAD,          ! Name
  ,                                       ! Surface Rendering Name
  {93a1149d-1715-4a0f-84cc-906b97190f97}, ! Layer 1
  {a36de003-2832-4cbc-abfd-fd7c45ca8d8e}, ! Layer 2
  {5518f97a-5a23-424b-b777-c8df0da1726f}; ! Layer 3

OS:Material,
  {93a1149d-1715-4a0f-84cc-906b97190f97}, ! Handle
  Roof Membrane,                          ! Name
  VeryRough,                              ! Roughness
  0.0095,                                 ! Thickness {m}
  0.16,                                   ! Conductivity {W/m-K}
  1121.29,                                ! Density {kg/m3}
  1460,                                   ! Specific Heat {J/kg-K}
  0.9,                                    ! Thermal Absorptance
  0.7,                                    ! Solar Absorptance
  0.7;                                    ! Visible Absorptance

OS:Material,
  {a36de003-2832-4cbc-abfd-fd7c45ca8d8e}, ! Handle
  Roof Insulation,                        ! Name
  MediumRough,                            ! Roughness
  0.124958,                               ! Thickness {m}
  0.049,                                  ! Conductivity {W/m-K}
  265,                                    ! Density {kg/m3}
  836.8,                                  ! Specific Heat {J/kg-K}
  0.9,                                    ! Thermal Absorptance
  0.7,                                    ! Solar Absorptance
  0.7;                                    ! Visible Absorptance

OS:Material,
  {5518f97a-5a23-424b-b777-c8df0da1726f}, ! Handle
  Metal Decking,                          ! Name
  MediumSmooth,                           ! Roughness
  0.001524,                               ! Thickness {m}
  45.006,                                 ! Conductivity {W/m-K}
  7680,                                   ! Density {kg/m3}
  418.4,                                  ! Specific Heat {J/kg-K}
  0.9,                                    ! Thermal Absorptance
  0.7,                                    ! Solar Absorptance
  0.3;                                    ! Visible Absorptance

OS:ComponentCost:LineItem,
  {597341ec-2bb8-40ca-b05a-7ce9e5851825}, ! Handle
  90.1-1999 Nonres B3 Roof IEAD,          ! Name
  ,                                       ! Type
  Construction,                           ! Line Item Type
  90.1-1999 Nonres B3 Roof IEAD,          ! Item Name
  ,                                       ! Object End Use Key
  ,                                       ! Quantity {dimensionless}
  49.208,                                 ! Material Cost {$}
  CostPerArea;                            ! Material Cost Units

