
OS:Version,
  {31504cfa-f7be-4c9e-94f4-ca085320d401}, ! Handle
  0.9.3;                                  ! Version Identifier

OS:Construction,
  {ee6a70a3-a80b-4e51-8b1b-64aa7ce989b0}, ! Handle
  90.1-1999 Nonres B3 Roof IEAD,          ! Name
  ,                                       ! Surface Rendering Name
  {7a76b819-6091-4cad-94eb-acbc04ba6c11}, ! Layer 1
  {335767d6-36b8-4756-8472-5fd45b87ba58}, ! Layer 2
  {e86af9f9-28b4-4cc9-8392-c81923f9aed8}; ! Layer 3

OS:Material,
  {7a76b819-6091-4cad-94eb-acbc04ba6c11}, ! Handle
  Roof Membrane,                          ! Name
  VeryRough,                              ! Roughness
  0.0095,                                 ! Thickness {m}
  0.16,                                   ! Conductivity {W/m-K}
  1121.29,                                ! Density {kg/m3}
  1460,                                   ! Specific Heat {J/kg-K}
  0.9,                                    ! Thermal Absorptance
  0.7,                                    ! Solar Absorptance
  0.7;                                    ! Visible Absorptance

OS:Material,
  {335767d6-36b8-4756-8472-5fd45b87ba58}, ! Handle
  Roof Insulation,                        ! Name
  MediumRough,                            ! Roughness
  0.124958,                               ! Thickness {m}
  0.049,                                  ! Conductivity {W/m-K}
  265,                                    ! Density {kg/m3}
  836.8,                                  ! Specific Heat {J/kg-K}
  0.9,                                    ! Thermal Absorptance
  0.7,                                    ! Solar Absorptance
  0.7;                                    ! Visible Absorptance

OS:Material,
  {e86af9f9-28b4-4cc9-8392-c81923f9aed8}, ! Handle
  Metal Decking,                          ! Name
  MediumSmooth,                           ! Roughness
  0.001524,                               ! Thickness {m}
  45.006,                                 ! Conductivity {W/m-K}
  7680,                                   ! Density {kg/m3}
  418.4,                                  ! Specific Heat {J/kg-K}
  0.9,                                    ! Thermal Absorptance
  0.7,                                    ! Solar Absorptance
  0.3;                                    ! Visible Absorptance

OS:ComponentCost:LineItem,
  {5e92c1ef-3eb0-4071-bc9c-dfda01277dc3}, ! Handle
  90.1-1999 Nonres B3 Roof IEAD,          ! Name
  ,                                       ! Type
  Construction,                           ! Line Item Type
  90.1-1999 Nonres B3 Roof IEAD,          ! Item Name
  ,                                       ! Object End Use Key
  ,                                       ! Quantity {dimensionless}
  49.208,                                 ! Material Cost {$}
  CostPerArea;                            ! Material Cost Units

OS:ComponentData,
  {57bae373-f634-4874-8fa5-f41dc220fa05}, ! Handle
  Component Data 1,                       ! Name
  {3ccf6012-87b4-47e0-8716-2f294635b726}, ! UUID
  {de4ba788-3153-4e48-97ba-5d5a3316f860}, ! Version UUID
  1363981046,                             ! Creation Timestamp
  1363981046,                             ! Version Timestamp
  {ee6a70a3-a80b-4e51-8b1b-64aa7ce989b0}, ! Name of Object 1
  {7a76b819-6091-4cad-94eb-acbc04ba6c11}, ! Name of Object 2
  {335767d6-36b8-4756-8472-5fd45b87ba58}, ! Name of Object 3
  {e86af9f9-28b4-4cc9-8392-c81923f9aed8}, ! Name of Object 4
  {5e92c1ef-3eb0-4071-bc9c-dfda01277dc3}; ! Name of Object 5

