
OS:Version,
  {bd5952d5-4efd-4148-8173-91d3ec10b32c}, ! Handle
  0.9.3;                                  ! Version Identifier

OS:Material,
  {7d0b61e5-6db2-44f4-acb4-0a95f16ecb65}, ! Handle
  1/2IN Gypsum,                           ! Name
  Smooth,                                 ! Roughness
  0.01271,                                ! Thickness {m}
  0.16,                                   ! Conductivity {W/m-K}
  784.9,                                  ! Density {kg/m3}
  830,                                    ! Specific Heat {J/kg-K}
  0.9,                                    ! Thermal Absorptance
  0.92,                                   ! Solar Absorptance
  0.92;                                   ! Visible Absorptance

OS:ComponentCost:LineItem,
  {afaef0fa-43dc-4df7-b5ce-b86ade041f78}, ! Handle
  90.1-2001 Res B3 Ext Wall Mass,         ! Name
  ,                                       ! Type
  Construction,                           ! Line Item Type
  90.1-2001 Res B3 Ext Wall Mass,         ! Item Name
  ,                                       ! Object End Use Key
  ,                                       ! Quantity {dimensionless}
  58.897,                                 ! Material Cost {$}
  CostPerArea;                            ! Material Cost Units

OS:Material,
  {bb2d8adb-95da-4aa3-9fdf-a7064438fdab}, ! Handle
  8IN Concrete HW,                        ! Name
  MediumRough,                            ! Roughness
  0.2033,                                 ! Thickness {m}
  1.7296,                                 ! Conductivity {W/m-K}
  2243,                                   ! Density {kg/m3}
  837,                                    ! Specific Heat {J/kg-K}
  0.9,                                    ! Thermal Absorptance
  0.65,                                   ! Solar Absorptance
  0.65;                                   ! Visible Absorptance

OS:Material,
  {c5dfe9a1-e23b-4db9-8480-379930ffd349}, ! Handle
  1IN Stucco,                             ! Name
  Smooth,                                 ! Roughness
  0.0253,                                 ! Thickness {m}
  0.6918,                                 ! Conductivity {W/m-K}
  1858,                                   ! Density {kg/m3}
  837,                                    ! Specific Heat {J/kg-K}
  0.9,                                    ! Thermal Absorptance
  0.92,                                   ! Solar Absorptance
  0.92;                                   ! Visible Absorptance

OS:Material,
  {8dad19d3-126d-45a4-bf1b-aa0fc4c2e146}, ! Handle
  Wall Insulation [4],                    ! Name
  MediumRough,                            ! Roughness
  0.0338606,                              ! Thickness {m}
  0.0432,                                 ! Conductivity {W/m-K}
  91,                                     ! Density {kg/m3}
  837,                                    ! Specific Heat {J/kg-K}
  0.9,                                    ! Thermal Absorptance
  0.5,                                    ! Solar Absorptance
  0.5;                                    ! Visible Absorptance

OS:Construction,
  {981254f7-9322-4d92-83a0-d4e0583048ce}, ! Handle
  90.1-2001 Res B3 Ext Wall Mass,         ! Name
  ,                                       ! Surface Rendering Name
  {c5dfe9a1-e23b-4db9-8480-379930ffd349}, ! Layer 1
  {bb2d8adb-95da-4aa3-9fdf-a7064438fdab}, ! Layer 2
  {8dad19d3-126d-45a4-bf1b-aa0fc4c2e146}, ! Layer 3
  {7d0b61e5-6db2-44f4-acb4-0a95f16ecb65}; ! Layer 4

