
OS:Version,
  {e75badf0-85c1-4a17-aec9-698485f1154e}, ! Handle
  0.9.3;                                  ! Version Identifier

OS:Construction,
  {c967f6fc-d6cd-491b-a197-72aa4aff5200}, ! Handle
  90.1-2007 Res 1A Ext Wall Mass,         ! Name
  ,                                       ! Surface Rendering Name
  {fda46237-a994-41ec-a27d-55564e3a61c3}, ! Layer 1
  {e21d26e9-aa36-420a-befd-b3a0ec37c759}, ! Layer 2
  {ae93b57d-d6fd-445e-b9c0-ad08d26b4fd7}, ! Layer 3
  {7334966e-b44f-4e52-a984-741767cbf262}; ! Layer 4

OS:Material,
  {fda46237-a994-41ec-a27d-55564e3a61c3}, ! Handle
  1IN Stucco,                             ! Name
  Smooth,                                 ! Roughness
  0.0253,                                 ! Thickness {m}
  0.6918,                                 ! Conductivity {W/m-K}
  1858,                                   ! Density {kg/m3}
  837,                                    ! Specific Heat {J/kg-K}
  0.9,                                    ! Thermal Absorptance
  0.92,                                   ! Solar Absorptance
  0.92;                                   ! Visible Absorptance

OS:Material,
  {e21d26e9-aa36-420a-befd-b3a0ec37c759}, ! Handle
  8IN Concrete HW,                        ! Name
  MediumRough,                            ! Roughness
  0.2033,                                 ! Thickness {m}
  1.7296,                                 ! Conductivity {W/m-K}
  2243,                                   ! Density {kg/m3}
  837,                                    ! Specific Heat {J/kg-K}
  0.9,                                    ! Thermal Absorptance
  0.65,                                   ! Solar Absorptance
  0.65;                                   ! Visible Absorptance

OS:Material,
  {ae93b57d-d6fd-445e-b9c0-ad08d26b4fd7}, ! Handle
  Wall Insulation [4],                    ! Name
  MediumRough,                            ! Roughness
  0.0338606,                              ! Thickness {m}
  0.0432,                                 ! Conductivity {W/m-K}
  91,                                     ! Density {kg/m3}
  837,                                    ! Specific Heat {J/kg-K}
  0.9,                                    ! Thermal Absorptance
  0.5,                                    ! Solar Absorptance
  0.5;                                    ! Visible Absorptance

OS:Material,
  {7334966e-b44f-4e52-a984-741767cbf262}, ! Handle
  1/2IN Gypsum,                           ! Name
  Smooth,                                 ! Roughness
  0.01271,                                ! Thickness {m}
  0.16,                                   ! Conductivity {W/m-K}
  784.9,                                  ! Density {kg/m3}
  830,                                    ! Specific Heat {J/kg-K}
  0.9,                                    ! Thermal Absorptance
  0.92,                                   ! Solar Absorptance
  0.92;                                   ! Visible Absorptance

OS:ComponentCost:LineItem,
  {02ffba49-bcfd-451e-89b8-50032911d857}, ! Handle
  90.1-2007 Res 1A Ext Wall Mass,         ! Name
  ,                                       ! Type
  Construction,                           ! Line Item Type
  90.1-2007 Res 1A Ext Wall Mass,         ! Item Name
  ,                                       ! Object End Use Key
  ,                                       ! Quantity {dimensionless}
  58.897,                                 ! Material Cost {$}
  CostPerArea;                            ! Material Cost Units

