
OS:Version,
  {0248d7e7-7dbd-48fe-9ac5-81c62f29e2f4}, !- Handle
  1.1.0;                                  !- Version Identifier

OS:Construction,
  {471dfaa9-2ade-438c-ba0a-5aff1420612c}, !- Handle
  Dbl Green 3m/6mm Air,                   !- Name
  ,                                       !- Surface Rendering Name
  {d350b3a3-3e6e-4c80-8e66-61c5eaf11f87}, !- Layer 1
  {9d026044-8b94-4d52-a957-a7387535f06f}, !- Layer 2
  {6662281d-fefb-47b7-934c-8907b8eaf43c}; !- Layer 3

OS:WindowMaterial:Glazing,
  {d350b3a3-3e6e-4c80-8e66-61c5eaf11f87}, !- Handle
  GREEN 3MM,                              !- Name
  SpectralAverage,                        !- Optical Data Type
  ,                                       !- Window Glass Spectral Data Set Name
  0.003,                                  !- Thickness {m}
  0.635,                                  !- Solar Transmittance at Normal Incidence
  0.063,                                  !- Front Side Solar Reflectance at Normal Incidence
  0.063,                                  !- Back Side Solar Reflectance at Normal Incidence
  0.822,                                  !- Visible Transmittance at Normal Incidence
  0.075,                                  !- Front Side Visible Reflectance at Normal Incidence
  0.075,                                  !- Back Side Visible Reflectance at Normal Incidence
  0,                                      !- Infrared Transmittance at Normal Incidence
  0.84,                                   !- Front Side Infrared Hemispherical Emissivity
  0.84,                                   !- Back Side Infrared Hemispherical Emissivity
  0.9;                                    !- Conductivity {W/m-K}

OS:WindowMaterial:Gas,
  {9d026044-8b94-4d52-a957-a7387535f06f}, !- Handle
  AIR 6MM,                                !- Name
  Air,                                    !- Gas Type
  0.0063;                                 !- Thickness {m}

OS:WindowMaterial:Glazing,
  {6662281d-fefb-47b7-934c-8907b8eaf43c}, !- Handle
  CLEAR 3MM,                              !- Name
  SpectralAverage,                        !- Optical Data Type
  ,                                       !- Window Glass Spectral Data Set Name
  0.003,                                  !- Thickness {m}
  0.837,                                  !- Solar Transmittance at Normal Incidence
  0.075,                                  !- Front Side Solar Reflectance at Normal Incidence
  0.075,                                  !- Back Side Solar Reflectance at Normal Incidence
  0.898,                                  !- Visible Transmittance at Normal Incidence
  0.081,                                  !- Front Side Visible Reflectance at Normal Incidence
  0.081,                                  !- Back Side Visible Reflectance at Normal Incidence
  0,                                      !- Infrared Transmittance at Normal Incidence
  0.84,                                   !- Front Side Infrared Hemispherical Emissivity
  0.84,                                   !- Back Side Infrared Hemispherical Emissivity
  0.9;                                    !- Conductivity {W/m-K}

