
OS:Version,
  {10ee6e90-f20b-48f9-8c73-4f2fc5cb9c7f}, ! Handle
  0.9.3;                                  ! Version Identifier

OS:Material,
  {a744644f-3f26-49f3-95fa-7cc2b4cdb876}, ! Handle
  Metal Decking,                          ! Name
  MediumSmooth,                           ! Roughness
  0.001524,                               ! Thickness {m}
  45.006,                                 ! Conductivity {W/m-K}
  7680,                                   ! Density {kg/m3}
  418.4,                                  ! Specific Heat {J/kg-K}
  0.9,                                    ! Thermal Absorptance
  0.7,                                    ! Solar Absorptance
  0.3;                                    ! Visible Absorptance

OS:Construction,
  {17cb24cf-2564-44a8-98a8-7af64876453e}, ! Handle
  90.1-2001 Nonres B10 Roof IEAD,         ! Name
  ,                                       ! Surface Rendering Name
  {9b7e2d37-4040-4d4e-bb20-0d2bdcf89555}, ! Layer 1
  {6ca8e85e-799a-4831-8dd5-bb0f46dc4cd5}, ! Layer 2
  {a744644f-3f26-49f3-95fa-7cc2b4cdb876}; ! Layer 3

OS:Material,
  {9b7e2d37-4040-4d4e-bb20-0d2bdcf89555}, ! Handle
  Roof Membrane,                          ! Name
  VeryRough,                              ! Roughness
  0.0095,                                 ! Thickness {m}
  0.16,                                   ! Conductivity {W/m-K}
  1121.29,                                ! Density {kg/m3}
  1460,                                   ! Specific Heat {J/kg-K}
  0.9,                                    ! Thermal Absorptance
  0.7,                                    ! Solar Absorptance
  0.7;                                    ! Visible Absorptance

OS:Material,
  {6ca8e85e-799a-4831-8dd5-bb0f46dc4cd5}, ! Handle
  Roof Insulation,                        ! Name
  MediumRough,                            ! Roughness
  0.124958,                               ! Thickness {m}
  0.049,                                  ! Conductivity {W/m-K}
  265,                                    ! Density {kg/m3}
  836.8,                                  ! Specific Heat {J/kg-K}
  0.9,                                    ! Thermal Absorptance
  0.7,                                    ! Solar Absorptance
  0.7;                                    ! Visible Absorptance

OS:ComponentCost:LineItem,
  {d573a7be-b83f-4eed-8ec5-cf4b08f1466c}, ! Handle
  90.1-2001 Nonres B10 Roof IEAD,         ! Name
  ,                                       ! Type
  Construction,                           ! Line Item Type
  90.1-2001 Nonres B10 Roof IEAD,         ! Item Name
  ,                                       ! Object End Use Key
  ,                                       ! Quantity {dimensionless}
  49.208,                                 ! Material Cost {$}
  CostPerArea;                            ! Material Cost Units

