
OS:Version,
  {4f4b9780-3012-4cfa-b386-747a2664fc3e}, ! Handle
  0.9.3;                                  ! Version Identifier

OS:Material,
  {344752db-e443-457a-9247-5e73e6043198}, ! Handle
  Wall Insulation,                        ! Name
  MediumRough,                            ! Roughness
  0.0598725,                              ! Thickness {m}
  0.045,                                  ! Conductivity {W/m-K}
  265,                                    ! Density {kg/m3}
  836.8,                                  ! Specific Heat {J/kg-K}
  0.9,                                    ! Thermal Absorptance
  0.7,                                    ! Solar Absorptance
  0.7;                                    ! Visible Absorptance

OS:Material,
  {790d9041-7432-4810-be64-2387b3776619}, ! Handle
  1/2IN Gypsum,                           ! Name
  Smooth,                                 ! Roughness
  0.01271,                                ! Thickness {m}
  0.16,                                   ! Conductivity {W/m-K}
  784.9,                                  ! Density {kg/m3}
  830,                                    ! Specific Heat {J/kg-K}
  0.9,                                    ! Thermal Absorptance
  0.92,                                   ! Solar Absorptance
  0.92;                                   ! Visible Absorptance

OS:Material,
  {cc620500-bfdc-4ca8-9a35-77cd6e692d88}, ! Handle
  Metal Siding,                           ! Name
  Smooth,                                 ! Roughness
  0.0015,                                 ! Thickness {m}
  44.96,                                  ! Conductivity {W/m-K}
  7688.86,                                ! Density {kg/m3}
  410,                                    ! Specific Heat {J/kg-K}
  0.9,                                    ! Thermal Absorptance
  0.2,                                    ! Solar Absorptance
  0.2;                                    ! Visible Absorptance

OS:Construction,
  {2972b963-48e6-4181-8589-2110d5d2da65}, ! Handle
  90.1-1999 Nonres B7 Ext Wall Metal Building, ! Name
  ,                                       ! Surface Rendering Name
  {cc620500-bfdc-4ca8-9a35-77cd6e692d88}, ! Layer 1
  {344752db-e443-457a-9247-5e73e6043198}, ! Layer 2
  {790d9041-7432-4810-be64-2387b3776619}; ! Layer 3

OS:ComponentCost:LineItem,
  {182e6da5-206c-477f-9245-bc6bd5a477cc}, ! Handle
  90.1-1999 Nonres B7 Ext Wall Metal Building, ! Name
  ,                                       ! Type
  Construction,                           ! Line Item Type
  90.1-1999 Nonres B7 Ext Wall Metal Building, ! Item Name
  ,                                       ! Object End Use Key
  ,                                       ! Quantity {dimensionless}
  98.78,                                  ! Material Cost {$}
  CostPerArea;                            ! Material Cost Units

