
OS:Version,
  {e0d6333f-0279-4ee1-a2c9-5f0c79b70e63}, ! Handle
  0.9.3;                                  ! Version Identifier

OS:Material,
  {83ec0275-7078-4dbc-b288-e54c27f0689a}, ! Handle
  Metal Roofing,                          ! Name
  MediumSmooth,                           ! Roughness
  0.001524,                               ! Thickness {m}
  45.006,                                 ! Conductivity {W/m-K}
  7680,                                   ! Density {kg/m3}
  418.4,                                  ! Specific Heat {J/kg-K}
  0.9,                                    ! Thermal Absorptance
  0.7,                                    ! Solar Absorptance
  0.3;                                    ! Visible Absorptance

OS:Material,
  {06264489-f64e-4428-869a-260678f43fc5}, ! Handle
  Roof Insulation [1],                    ! Name
  MediumRough,                            ! Roughness
  0.123533,                               ! Thickness {m}
  0.049,                                  ! Conductivity {W/m-K}
  265,                                    ! Density {kg/m3}
  836.8,                                  ! Specific Heat {J/kg-K}
  0.9,                                    ! Thermal Absorptance
  0.7,                                    ! Solar Absorptance
  0.7;                                    ! Visible Absorptance

OS:ComponentCost:LineItem,
  {5bf3b760-3f90-43aa-8f9c-c7a12c040043}, ! Handle
  90.1-2001 Res B6 Roof Metal Building,   ! Name
  ,                                       ! Type
  Construction,                           ! Line Item Type
  90.1-2001 Res B6 Roof Metal Building,   ! Item Name
  ,                                       ! Object End Use Key
  ,                                       ! Quantity {dimensionless}
  38.206,                                 ! Material Cost {$}
  CostPerArea;                            ! Material Cost Units

OS:Construction,
  {b9919a36-c512-4d57-ac10-8a3ca4e5bb37}, ! Handle
  90.1-2001 Res B6 Roof Metal Building,   ! Name
  ,                                       ! Surface Rendering Name
  {83ec0275-7078-4dbc-b288-e54c27f0689a}, ! Layer 1
  {06264489-f64e-4428-869a-260678f43fc5}; ! Layer 2

