
OS:Version,
  {b0096357-e844-46fc-a3e7-ff03d34cb080}, ! Handle
  0.9.3;                                  ! Version Identifier

OS:Construction,
  {6a1e5ccd-51fa-4752-a8be-48f31c6cf153}, ! Handle
  90.1-2001 Res B6 Roof Metal Building,   ! Name
  ,                                       ! Surface Rendering Name
  {360dcbcf-6095-4a80-8cd8-94e4488b6f7a}, ! Layer 1
  {a260f469-560e-4049-b290-030a4e5803d0}; ! Layer 2

OS:Material,
  {360dcbcf-6095-4a80-8cd8-94e4488b6f7a}, ! Handle
  Metal Roofing,                          ! Name
  MediumSmooth,                           ! Roughness
  0.001524,                               ! Thickness {m}
  45.006,                                 ! Conductivity {W/m-K}
  7680,                                   ! Density {kg/m3}
  418.4,                                  ! Specific Heat {J/kg-K}
  0.9,                                    ! Thermal Absorptance
  0.7,                                    ! Solar Absorptance
  0.3;                                    ! Visible Absorptance

OS:Material,
  {a260f469-560e-4049-b290-030a4e5803d0}, ! Handle
  Roof Insulation [1],                    ! Name
  MediumRough,                            ! Roughness
  0.123533,                               ! Thickness {m}
  0.049,                                  ! Conductivity {W/m-K}
  265,                                    ! Density {kg/m3}
  836.8,                                  ! Specific Heat {J/kg-K}
  0.9,                                    ! Thermal Absorptance
  0.7,                                    ! Solar Absorptance
  0.7;                                    ! Visible Absorptance

OS:ComponentCost:LineItem,
  {2aebbaa9-539c-4644-8ade-86320e8aed6b}, ! Handle
  90.1-2001 Res B6 Roof Metal Building,   ! Name
  ,                                       ! Type
  Construction,                           ! Line Item Type
  90.1-2001 Res B6 Roof Metal Building,   ! Item Name
  ,                                       ! Object End Use Key
  ,                                       ! Quantity {dimensionless}
  38.206,                                 ! Material Cost {$}
  CostPerArea;                            ! Material Cost Units

OS:ComponentData,
  {5839d6b8-fd6c-492e-b550-18a1f2c0f26e}, ! Handle
  Component Data 1,                       ! Name
  {61aadd8c-2849-40c7-a620-a07becffc11c}, ! UUID
  {4a7303ba-c2b4-4fe0-be61-cca0c69368b2}, ! Version UUID
  1363981476,                             ! Creation Timestamp
  1363981476,                             ! Version Timestamp
  {6a1e5ccd-51fa-4752-a8be-48f31c6cf153}, ! Name of Object 1
  {360dcbcf-6095-4a80-8cd8-94e4488b6f7a}, ! Name of Object 2
  {a260f469-560e-4049-b290-030a4e5803d0}, ! Name of Object 3
  {2aebbaa9-539c-4644-8ade-86320e8aed6b}; ! Name of Object 4

