
OS:Version,
  {e7bc6177-b005-413f-8923-695068b5c78d}, ! Handle
  0.9.3;                                  ! Version Identifier

OS:Material,
  {5f1db80b-10fb-4a3c-873a-dc453009f0b8}, ! Handle
  Roof Membrane,                          ! Name
  VeryRough,                              ! Roughness
  0.0095,                                 ! Thickness {m}
  0.16,                                   ! Conductivity {W/m-K}
  1121.29,                                ! Density {kg/m3}
  1460,                                   ! Specific Heat {J/kg-K}
  0.9,                                    ! Thermal Absorptance
  0.7,                                    ! Solar Absorptance
  0.7;                                    ! Visible Absorptance

OS:ComponentCost:LineItem,
  {3c056bde-17c8-4664-a9ad-ffd6b01f9f79}, ! Handle
  AEDG-SmOffice 5B Roof IEAD,             ! Name
  ,                                       ! Type
  Construction,                           ! Line Item Type
  AEDG-SmOffice 5B Roof IEAD,             ! Item Name
  ,                                       ! Object End Use Key
  ,                                       ! Quantity {dimensionless}
  52.896,                                 ! Material Cost {$}
  CostPerArea;                            ! Material Cost Units

OS:Construction,
  {f1a422aa-5cd6-4f9b-8a13-e44d31d3bfdd}, ! Handle
  AEDG-SmOffice 5B Roof IEAD,             ! Name
  ,                                       ! Surface Rendering Name
  {5f1db80b-10fb-4a3c-873a-dc453009f0b8}, ! Layer 1
  {37218536-35ce-462b-986b-9d59f970e7dc}, ! Layer 2
  {f7417951-6afa-4722-93f0-7c5019729993}; ! Layer 3

OS:Material,
  {37218536-35ce-462b-986b-9d59f970e7dc}, ! Handle
  Roof Insulation [7],                    ! Name
  MediumRough,                            ! Roughness
  0.167563,                               ! Thickness {m}
  0.049,                                  ! Conductivity {W/m-K}
  265,                                    ! Density {kg/m3}
  836.8,                                  ! Specific Heat {J/kg-K}
  0.9,                                    ! Thermal Absorptance
  0.7,                                    ! Solar Absorptance
  0.7;                                    ! Visible Absorptance

OS:Material,
  {f7417951-6afa-4722-93f0-7c5019729993}, ! Handle
  Metal Decking,                          ! Name
  MediumSmooth,                           ! Roughness
  0.001524,                               ! Thickness {m}
  45.006,                                 ! Conductivity {W/m-K}
  7680,                                   ! Density {kg/m3}
  418.4,                                  ! Specific Heat {J/kg-K}
  0.9,                                    ! Thermal Absorptance
  0.7,                                    ! Solar Absorptance
  0.3;                                    ! Visible Absorptance

