
OS:Version,
  {10378fa1-871f-45f9-892b-5925358154ac}, ! Handle
  0.9.3;                                  ! Version Identifier

OS:Construction,
  {4214182c-5af5-4dcd-ad7c-28aa255777a3}, ! Handle
  90.1-2001 Res B9 Roof Metal Building,   ! Name
  ,                                       ! Surface Rendering Name
  {7266aa31-b090-40d2-96c1-dc104df959ab}, ! Layer 1
  {8ada5300-122d-4864-9523-cc36aa6a02de}; ! Layer 2

OS:Material,
  {7266aa31-b090-40d2-96c1-dc104df959ab}, ! Handle
  Metal Roofing,                          ! Name
  MediumSmooth,                           ! Roughness
  0.001524,                               ! Thickness {m}
  45.006,                                 ! Conductivity {W/m-K}
  7680,                                   ! Density {kg/m3}
  418.4,                                  ! Specific Heat {J/kg-K}
  0.9,                                    ! Thermal Absorptance
  0.7,                                    ! Solar Absorptance
  0.3;                                    ! Visible Absorptance

OS:Material,
  {8ada5300-122d-4864-9523-cc36aa6a02de}, ! Handle
  Roof Insulation [1],                    ! Name
  MediumRough,                            ! Roughness
  0.123533,                               ! Thickness {m}
  0.049,                                  ! Conductivity {W/m-K}
  265,                                    ! Density {kg/m3}
  836.8,                                  ! Specific Heat {J/kg-K}
  0.9,                                    ! Thermal Absorptance
  0.7,                                    ! Solar Absorptance
  0.7;                                    ! Visible Absorptance

OS:ComponentCost:LineItem,
  {3141b978-b781-4ce8-9f49-77dfd468e11c}, ! Handle
  90.1-2001 Res B9 Roof Metal Building,   ! Name
  ,                                       ! Type
  Construction,                           ! Line Item Type
  90.1-2001 Res B9 Roof Metal Building,   ! Item Name
  ,                                       ! Object End Use Key
  ,                                       ! Quantity {dimensionless}
  38.206,                                 ! Material Cost {$}
  CostPerArea;                            ! Material Cost Units

