
OS:Version,
  {57cdd52a-4b34-47bd-bbba-813f8ae4b4e9}, ! Handle
  0.9.3;                                  ! Version Identifier

OS:Construction,
  {4826383e-2d18-4dce-87a2-68e80b2a03aa}, ! Handle
  90.1-2001 Res B9 Roof Metal Building,   ! Name
  ,                                       ! Surface Rendering Name
  {dd8466c8-5888-46d2-b6df-f3f8cc31696d}, ! Layer 1
  {a6e2be08-23d1-4095-9516-a3a3992e1655}; ! Layer 2

OS:Material,
  {dd8466c8-5888-46d2-b6df-f3f8cc31696d}, ! Handle
  Metal Roofing,                          ! Name
  MediumSmooth,                           ! Roughness
  0.001524,                               ! Thickness {m}
  45.006,                                 ! Conductivity {W/m-K}
  7680,                                   ! Density {kg/m3}
  418.4,                                  ! Specific Heat {J/kg-K}
  0.9,                                    ! Thermal Absorptance
  0.7,                                    ! Solar Absorptance
  0.3;                                    ! Visible Absorptance

OS:Material,
  {a6e2be08-23d1-4095-9516-a3a3992e1655}, ! Handle
  Roof Insulation [1],                    ! Name
  MediumRough,                            ! Roughness
  0.123533,                               ! Thickness {m}
  0.049,                                  ! Conductivity {W/m-K}
  265,                                    ! Density {kg/m3}
  836.8,                                  ! Specific Heat {J/kg-K}
  0.9,                                    ! Thermal Absorptance
  0.7,                                    ! Solar Absorptance
  0.7;                                    ! Visible Absorptance

OS:ComponentCost:LineItem,
  {a802b0c5-48ca-4534-be80-152b9979bcec}, ! Handle
  90.1-2001 Res B9 Roof Metal Building,   ! Name
  ,                                       ! Type
  Construction,                           ! Line Item Type
  90.1-2001 Res B9 Roof Metal Building,   ! Item Name
  ,                                       ! Object End Use Key
  ,                                       ! Quantity {dimensionless}
  38.206,                                 ! Material Cost {$}
  CostPerArea;                            ! Material Cost Units

OS:ComponentData,
  {b87245fe-cb46-4433-b8b0-307067a76fd5}, ! Handle
  Component Data 1,                       ! Name
  {681d36a2-100b-47e8-aeb6-940ec7a346dc}, ! UUID
  {b76cfe97-3a6f-476f-893a-e81109297fb5}, ! Version UUID
  1363981496,                             ! Creation Timestamp
  1363981496,                             ! Version Timestamp
  {4826383e-2d18-4dce-87a2-68e80b2a03aa}, ! Name of Object 1
  {dd8466c8-5888-46d2-b6df-f3f8cc31696d}, ! Name of Object 2
  {a6e2be08-23d1-4095-9516-a3a3992e1655}, ! Name of Object 3
  {a802b0c5-48ca-4534-be80-152b9979bcec}; ! Name of Object 4

