
OS:Version,
  {d3de1f93-25cc-4afc-9717-59422efd8a51}, ! Handle
  0.9.3;                                  ! Version Identifier

OS:Construction,
  {e739b9f8-5ca2-40ee-9628-01b18eb54ab2}, ! Handle
  90.1-1999 Res B24 Ext Slab Unheated - 4in Slab without Carpet, ! Name
  ,                                       ! Surface Rendering Name
  {e1425f77-cdcc-44f3-8d99-582a33db79bd}; ! Layer 1

OS:Material,
  {e1425f77-cdcc-44f3-8d99-582a33db79bd}, ! Handle
  MAT-CC05 4 HW CONCRETE,                 ! Name
  Rough,                                  ! Roughness
  0.1016,                                 ! Thickness {m}
  1.311,                                  ! Conductivity {W/m-K}
  2240,                                   ! Density {kg/m3}
  836.8,                                  ! Specific Heat {J/kg-K}
  0.9,                                    ! Thermal Absorptance
  0.7,                                    ! Solar Absorptance
  0.7;                                    ! Visible Absorptance

OS:ComponentCost:LineItem,
  {7f49d39f-b172-4d9e-b201-3ab6c4367727}, ! Handle
  90.1-1999 Res B24 Ext Slab Unheated - 4in Slab without Carpet, ! Name
  ,                                       ! Type
  Construction,                           ! Line Item Type
  90.1-1999 Res B24 Ext Slab Unheated - 4in Slab without Carpet, ! Item Name
  ,                                       ! Object End Use Key
  ,                                       ! Quantity {dimensionless}
  45.52,                                  ! Material Cost {$}
  CostPerArea;                            ! Material Cost Units

OS:ComponentData,
  {fef17249-95af-4536-a302-7f3a37b13d7a}, ! Handle
  Component Data 1,                       ! Name
  {2248a95a-c847-4fbc-8282-bb67b10ff390}, ! UUID
  {64b9c2ca-c4cf-4e93-8a45-24b76a4ff376}, ! Version UUID
  1363981271,                             ! Creation Timestamp
  1363981271,                             ! Version Timestamp
  {e739b9f8-5ca2-40ee-9628-01b18eb54ab2}, ! Name of Object 1
  {e1425f77-cdcc-44f3-8d99-582a33db79bd}, ! Name of Object 2
  {7f49d39f-b172-4d9e-b201-3ab6c4367727}; ! Name of Object 3

