
OS:Version,
  {7b8b9865-43a9-4842-be37-c9bdd093e182}, ! Handle
  0.9.3;                                  ! Version Identifier

OS:WindowMaterial:Glazing,
  {fdafb29e-5b24-4d23-813c-78ab11d9bde8}, ! Handle
  Theoretical Glass [222],                ! Name
  SpectralAverage,                        ! Optical Data Type
  ,                                       ! Window Glass Spectral Data Set Name
  0.003,                                  ! Thickness {m}
  0.43998,                                ! Solar Transmittance at Normal Incidence
  0.51002,                                ! Front Side Solar Reflectance at Normal Incidence
  0.51002,                                ! Back Side Solar Reflectance at Normal Incidence
  0.460166,                               ! Visible Transmittance at Normal Incidence
  0.489834,                               ! Front Side Visible Reflectance at Normal Incidence
  0.489834,                               ! Back Side Visible Reflectance at Normal Incidence
  0,                                      ! Infrared Transmittance at Normal Incidence
  0.9,                                    ! Front Side Infrared Hemispherical Emissivity
  0.9,                                    ! Back Side Infrared Hemispherical Emissivity
  0.0133196;                              ! Conductivity {W/m-K}

OS:ComponentCost:LineItem,
  {c4f55416-619c-4f54-91e7-4d242c5ee0be}, ! Handle
  189.1-2009 Res 7A Skylight without Curb, ! Name
  ,                                       ! Type
  Construction,                           ! Line Item Type
  189.1-2009 Res 7A Skylight without Curb, ! Item Name
  ,                                       ! Object End Use Key
  ,                                       ! Quantity {dimensionless}
  600.037,                                ! Material Cost {$}
  CostPerArea;                            ! Material Cost Units

OS:Construction,
  {1f7c1a49-6a7d-4b33-be73-fbb47bdea56a}, ! Handle
  189.1-2009 Res 7A Skylight without Curb, ! Name
  ,                                       ! Surface Rendering Name
  {fdafb29e-5b24-4d23-813c-78ab11d9bde8}; ! Layer 1

