
OS:Version,
  {fee24cb8-715b-4d73-ade3-f90dc495e64a}, ! Handle
  0.9.3;                                  ! Version Identifier

OS:Material,
  {c2a94c64-9451-4fab-a92e-d5da1a604e0d}, ! Handle
  1/2IN Gypsum Bottom,                    ! Name
  Smooth,                                 ! Roughness
  0.01271,                                ! Thickness {m}
  0.16,                                   ! Conductivity {W/m-K}
  784.9,                                  ! Density {kg/m3}
  830,                                    ! Specific Heat {J/kg-K}
  0.9,                                    ! Thermal Absorptance
  0.92,                                   ! Solar Absorptance
  0.92;                                   ! Visible Absorptance

OS:Construction,
  {6c55bdf4-dff3-4a81-8e5e-d331ebca76a9}, ! Handle
  AEDG SHC Nonres 2A Attic Floor,         ! Name
  ,                                       ! Surface Rendering Name
  {83091424-0e15-4856-9a1a-02992745e2ed}, ! Layer 1
  {51ec0883-972e-42c9-84f4-f4ba6192da2a}, ! Layer 2
  {c2a94c64-9451-4fab-a92e-d5da1a604e0d}; ! Layer 3

OS:Material,
  {83091424-0e15-4856-9a1a-02992745e2ed}, ! Handle
  1/2IN Gypsum Top,                       ! Name
  Smooth,                                 ! Roughness
  0.01271,                                ! Thickness {m}
  0.16,                                   ! Conductivity {W/m-K}
  784.9,                                  ! Density {kg/m3}
  830,                                    ! Specific Heat {J/kg-K}
  0.9,                                    ! Thermal Absorptance
  0.92,                                   ! Solar Absorptance
  0.92;                                   ! Visible Absorptance

OS:Material,
  {51ec0883-972e-42c9-84f4-f4ba6192da2a}, ! Handle
  AtticFloor Insulation [7],              ! Name
  MediumRough,                            ! Roughness
  0.210976,                               ! Thickness {m}
  0.049,                                  ! Conductivity {W/m-K}
  265,                                    ! Density {kg/m3}
  836.8,                                  ! Specific Heat {J/kg-K}
  0.9,                                    ! Thermal Absorptance
  0.7,                                    ! Solar Absorptance
  0.7;                                    ! Visible Absorptance

OS:ComponentCost:LineItem,
  {68e9135f-18e2-4ce2-966a-6ce76e4fc240}, ! Handle
  AEDG SHC Nonres 2A Attic Floor,         ! Name
  ,                                       ! Type
  Construction,                           ! Line Item Type
  AEDG SHC Nonres 2A Attic Floor,         ! Item Name
  ,                                       ! Object End Use Key
  ,                                       ! Quantity {dimensionless}
  0,                                      ! Material Cost {$}
  CostPerArea;                            ! Material Cost Units

