
OS:Version,
  {a238e2a3-e1f3-49fc-b371-9ac0c594f476}, ! Handle
  0.9.3;                                  ! Version Identifier

OS:Construction,
  {bb2e44c6-f728-4bfb-a0d6-c8bf833d8d96}, ! Handle
  90.1-2001 Res B15 Int Wall,             ! Name
  ,                                       ! Surface Rendering Name
  {92eb109d-2dbe-41aa-9ebd-47a1b44646db}, ! Layer 1
  {92eb109d-2dbe-41aa-9ebd-47a1b44646db}; ! Layer 2

OS:Material,
  {92eb109d-2dbe-41aa-9ebd-47a1b44646db}, ! Handle
  GP01 1/2 GYPSUM,                        ! Name
  Smooth,                                 ! Roughness
  0.01271,                                ! Thickness {m}
  0.16,                                   ! Conductivity {W/m-K}
  800,                                    ! Density {kg/m3}
  1090,                                   ! Specific Heat {J/kg-K}
  0.9,                                    ! Thermal Absorptance
  0.7,                                    ! Solar Absorptance
  0.5;                                    ! Visible Absorptance

OS:ComponentCost:LineItem,
  {2cef6b0b-d33e-4dec-8baa-f08f1c91ffe3}, ! Handle
  90.1-2001 Res B15 Int Wall,             ! Name
  ,                                       ! Type
  Construction,                           ! Line Item Type
  90.1-2001 Res B15 Int Wall,             ! Item Name
  ,                                       ! Object End Use Key
  ,                                       ! Quantity {dimensionless}
  0,                                      ! Material Cost {$}
  CostPerArea;                            ! Material Cost Units

OS:Material,
  {d54ddc09-3924-4fe0-9564-2e2f8cd8583a}, ! Handle
  GP01 1/2 GYPSUM 1,                      ! Name
  Smooth,                                 ! Roughness
  0.01271,                                ! Thickness {m}
  0.16,                                   ! Conductivity {W/m-K}
  800,                                    ! Density {kg/m3}
  1090,                                   ! Specific Heat {J/kg-K}
  0.9,                                    ! Thermal Absorptance
  0.7,                                    ! Solar Absorptance
  0.5;                                    ! Visible Absorptance

