
OS:Version,
  {83870bf4-8955-403f-8c14-da42f5d4fe6c}, ! Handle
  0.9.3;                                  ! Version Identifier

OS:Construction,
  {b4138073-bec2-431f-ab70-1552fa5941b8}, ! Handle
  189.1-2009 Res 2A Ext Slab Unheated - 8in Slab with Carpet, ! Name
  ,                                       ! Surface Rendering Name
  {e172c6eb-d01e-4ab0-b64c-82c81cf85f62}, ! Layer 1
  {312fe7a3-6afb-421b-a0cc-173794dced47}; ! Layer 2

OS:Material,
  {e172c6eb-d01e-4ab0-b64c-82c81cf85f62}, ! Handle
  MAT-CC05 8 HW CONCRETE,                 ! Name
  Rough,                                  ! Roughness
  0.20321,                                ! Thickness {m}
  1.311,                                  ! Conductivity {W/m-K}
  2240,                                   ! Density {kg/m3}
  836.8,                                  ! Specific Heat {J/kg-K}
  0.9,                                    ! Thermal Absorptance
  0.7,                                    ! Solar Absorptance
  0.7;                                    ! Visible Absorptance

OS:Material:NoMass,
  {312fe7a3-6afb-421b-a0cc-173794dced47}, ! Handle
  CP02 CARPET PAD,                        ! Name
  VeryRough,                              ! Roughness
  0.21648,                                ! Thermal Resistance {m2-K/W}
  0.9,                                    ! Thermal Absorptance
  0.7,                                    ! Solar Absorptance
  0.8;                                    ! Visible Absorptance

OS:ComponentCost:LineItem,
  {87a8e860-b099-4130-8c2d-b5416373d9d0}, ! Handle
  189.1-2009 Res 2A Ext Slab Unheated - 8in Slab with Carpet, ! Name
  ,                                       ! Type
  Construction,                           ! Line Item Type
  189.1-2009 Res 2A Ext Slab Unheated - 8in Slab with Carpet, ! Item Name
  ,                                       ! Object End Use Key
  ,                                       ! Quantity {dimensionless}
  45.52,                                  ! Material Cost {$}
  CostPerArea;                            ! Material Cost Units

