
OS:Version,
  {0270dc23-ed5b-4a67-a073-a0e127ab830c}, ! Handle
  0.9.3;                                  ! Version Identifier

OS:Construction,
  {fb19cffa-23dc-4400-8cbe-015aab4ab19c}, ! Handle
  189.1-2009 Res 2A Ext Slab Unheated - 8in Slab with Carpet, ! Name
  ,                                       ! Surface Rendering Name
  {0bacd28e-38a9-4604-af92-745331394166}, ! Layer 1
  {c864d0b7-0b80-4335-94cb-1342842a41ef}; ! Layer 2

OS:Material,
  {0bacd28e-38a9-4604-af92-745331394166}, ! Handle
  MAT-CC05 8 HW CONCRETE,                 ! Name
  Rough,                                  ! Roughness
  0.20321,                                ! Thickness {m}
  1.311,                                  ! Conductivity {W/m-K}
  2240,                                   ! Density {kg/m3}
  836.8,                                  ! Specific Heat {J/kg-K}
  0.9,                                    ! Thermal Absorptance
  0.7,                                    ! Solar Absorptance
  0.7;                                    ! Visible Absorptance

OS:Material:NoMass,
  {c864d0b7-0b80-4335-94cb-1342842a41ef}, ! Handle
  CP02 CARPET PAD,                        ! Name
  VeryRough,                              ! Roughness
  0.21648,                                ! Thermal Resistance {m2-K/W}
  0.9,                                    ! Thermal Absorptance
  0.7,                                    ! Solar Absorptance
  0.8;                                    ! Visible Absorptance

OS:ComponentCost:LineItem,
  {4ee08607-6d9b-47cd-8cde-1ba31b9f9189}, ! Handle
  189.1-2009 Res 2A Ext Slab Unheated - 8in Slab with Carpet, ! Name
  ,                                       ! Type
  Construction,                           ! Line Item Type
  189.1-2009 Res 2A Ext Slab Unheated - 8in Slab with Carpet, ! Item Name
  ,                                       ! Object End Use Key
  ,                                       ! Quantity {dimensionless}
  45.52,                                  ! Material Cost {$}
  CostPerArea;                            ! Material Cost Units

OS:ComponentData,
  {1258bd43-186d-49a2-af4a-582d1336011e}, ! Handle
  Component Data 1,                       ! Name
  {884d0013-c67e-4d10-b6a4-9e44847ca5f0}, ! UUID
  {90aef36c-eb5c-4c78-9b7d-92cca0e72744}, ! Version UUID
  1363980963,                             ! Creation Timestamp
  1363980963,                             ! Version Timestamp
  {fb19cffa-23dc-4400-8cbe-015aab4ab19c}, ! Name of Object 1
  {0bacd28e-38a9-4604-af92-745331394166}, ! Name of Object 2
  {c864d0b7-0b80-4335-94cb-1342842a41ef}, ! Name of Object 3
  {4ee08607-6d9b-47cd-8cde-1ba31b9f9189}; ! Name of Object 4

