
! 
OS:Version,
  {8503bb35-3288-4176-9c41-752f3d976c4b}, !- Handle
  1.13.0;                                 !- Version Identifier


! 
OS:Material,
  {61e60fe9-4618-43c4-87c0-490d3552f3de}, !- Handle
  Aislamiento: SATE
WEBER: weber.therm placa EPS 180 (0.180 m)
R: 4.9 m2K/W,                             !- Name
  MediumRough,                                 !- Roughness
  0.18,                                    !- Thickness {m}
  0.037,                                    !- Conductivity {W/m-K}
  15.0,                                    !- Density {kg/m3}
  800.0,                                    !- Specific Heat {J/kg-K}
  0.9,                                    !- Thermal Absorptance
  0.6,                                    !- Solar Absorptance
  0.6;                                    !- Visible Absorptance

