
OS:Version,
  {568dc841-bd14-4bfa-9b7e-e516125205e3}, ! Handle
  0.9.3;                                  ! Version Identifier

OS:Material,
  {c0a3a12f-d30f-4824-a6bb-f4213580f831}, ! Handle
  GP01 1/2 GYPSUM,                        ! Name
  Smooth,                                 ! Roughness
  0.01271,                                ! Thickness {m}
  0.16,                                   ! Conductivity {W/m-K}
  800,                                    ! Density {kg/m3}
  1090,                                   ! Specific Heat {J/kg-K}
  0.9,                                    ! Thermal Absorptance
  0.7,                                    ! Solar Absorptance
  0.5;                                    ! Visible Absorptance

OS:ComponentCost:LineItem,
  {d84deac5-6115-4308-afc7-cad54ea21e98}, ! Handle
  AEDG-SmOffice 2A Int Wall,              ! Name
  ,                                       ! Type
  Construction,                           ! Line Item Type
  AEDG-SmOffice 2A Int Wall,              ! Item Name
  ,                                       ! Object End Use Key
  ,                                       ! Quantity {dimensionless}
  0,                                      ! Material Cost {$}
  CostPerArea;                            ! Material Cost Units

OS:Construction,
  {efef041a-948b-40d4-95cd-5da505466361}, ! Handle
  AEDG-SmOffice 2A Int Wall,              ! Name
  ,                                       ! Surface Rendering Name
  {c0a3a12f-d30f-4824-a6bb-f4213580f831}, ! Layer 1
  {c0a3a12f-d30f-4824-a6bb-f4213580f831}; ! Layer 2

OS:Material,
  {c4796550-812b-4803-9c61-1e033879c933}, ! Handle
  GP01 1/2 GYPSUM 1,                      ! Name
  Smooth,                                 ! Roughness
  0.01271,                                ! Thickness {m}
  0.16,                                   ! Conductivity {W/m-K}
  800,                                    ! Density {kg/m3}
  1090,                                   ! Specific Heat {J/kg-K}
  0.9,                                    ! Thermal Absorptance
  0.7,                                    ! Solar Absorptance
  0.5;                                    ! Visible Absorptance

