
OS:Version,
  {4b4d3881-d1ce-4b65-9891-4edba9543ff2}, !- Handle
  1.1.0;                                  !- Version Identifier

OS:Construction,
  {358529da-6053-4aa8-9b53-5a187b893b15}, !- Handle
  Sgl LoE (e2=.2) Clr 6mm,                !- Name
  ,                                       !- Surface Rendering Name
  {fe55d7c8-a474-42e2-b20a-65078ced3a21}; !- Layer 1

OS:WindowMaterial:Glazing,
  {fe55d7c8-a474-42e2-b20a-65078ced3a21}, !- Handle
  PYR B CLEAR 6MM,                        !- Name
  SpectralAverage,                        !- Optical Data Type
  ,                                       !- Window Glass Spectral Data Set Name
  0.006,                                  !- Thickness {m}
  0.68,                                   !- Solar Transmittance at Normal Incidence
  0.09,                                   !- Front Side Solar Reflectance at Normal Incidence
  0.1,                                    !- Back Side Solar Reflectance at Normal Incidence
  0.81,                                   !- Visible Transmittance at Normal Incidence
  0.11,                                   !- Front Side Visible Reflectance at Normal Incidence
  0.12,                                   !- Back Side Visible Reflectance at Normal Incidence
  0,                                      !- Infrared Transmittance at Normal Incidence
  0.84,                                   !- Front Side Infrared Hemispherical Emissivity
  0.2,                                    !- Back Side Infrared Hemispherical Emissivity
  0.9;                                    !- Conductivity {W/m-K}

