
OS:Version,
  {b044672d-e2a4-4b93-b6ec-f9d4ad6fd744}, !- Handle
  1.1.0;                                  !- Version Identifier

OS:Construction,
  {e5520eb4-b37d-448b-8a0c-e548e1d9b678}, !- Handle
  Sgl LoE (e2=.2) Clr 6mm,                !- Name
  ,                                       !- Surface Rendering Name
  {f8fbcb7e-d9eb-43e9-9977-fc54cc201b27}; !- Layer 1

OS:WindowMaterial:Glazing,
  {f8fbcb7e-d9eb-43e9-9977-fc54cc201b27}, !- Handle
  PYR B CLEAR 6MM,                        !- Name
  SpectralAverage,                        !- Optical Data Type
  ,                                       !- Window Glass Spectral Data Set Name
  0.006,                                  !- Thickness {m}
  0.68,                                   !- Solar Transmittance at Normal Incidence
  0.09,                                   !- Front Side Solar Reflectance at Normal Incidence
  0.1,                                    !- Back Side Solar Reflectance at Normal Incidence
  0.81,                                   !- Visible Transmittance at Normal Incidence
  0.11,                                   !- Front Side Visible Reflectance at Normal Incidence
  0.12,                                   !- Back Side Visible Reflectance at Normal Incidence
  0,                                      !- Infrared Transmittance at Normal Incidence
  0.84,                                   !- Front Side Infrared Hemispherical Emissivity
  0.2,                                    !- Back Side Infrared Hemispherical Emissivity
  0.9;                                    !- Conductivity {W/m-K}

OS:ComponentData,
  {7f646b2b-1504-482e-970f-257ec6876a03}, !- Handle
  Component Data 1,                       !- Name
  {ce3c44ac-aa32-4199-9939-892f0960728f}, !- UUID
  {c817763c-e70b-415b-a972-f102562c954e}, !- Version UUID
  1384380195,                             !- Creation Timestamp
  1384380195,                             !- Version Timestamp
  {e5520eb4-b37d-448b-8a0c-e548e1d9b678}, !- Name of Object 1
  {f8fbcb7e-d9eb-43e9-9977-fc54cc201b27}; !- Name of Object 2

