
OS:Version,
  {4261b382-36d7-4550-9254-49c00a3410d6}, ! Handle
  0.9.3;                                  ! Version Identifier

OS:Construction,
  {781f2025-15d7-4223-a3bf-c8d3b7eb09c0}, ! Handle
  90.1-1999 Res B26 Skylight without Curb, ! Name
  ,                                       ! Surface Rendering Name
  {7baaec4f-4f44-4315-a625-83897a9c30bd}; ! Layer 1

OS:WindowMaterial:Glazing,
  {7baaec4f-4f44-4315-a625-83897a9c30bd}, ! Handle
  Theoretical Glass [117],                ! Name
  SpectralAverage,                        ! Optical Data Type
  ,                                       ! Window Glass Spectral Data Set Name
  0.003,                                  ! Thickness {m}
  0.470834,                               ! Solar Transmittance at Normal Incidence
  0.479166,                               ! Front Side Solar Reflectance at Normal Incidence
  0.479166,                               ! Back Side Solar Reflectance at Normal Incidence
  0.529698,                               ! Visible Transmittance at Normal Incidence
  0.420302,                               ! Front Side Visible Reflectance at Normal Incidence
  0.420302,                               ! Back Side Visible Reflectance at Normal Incidence
  0,                                      ! Infrared Transmittance at Normal Incidence
  0.9,                                    ! Front Side Infrared Hemispherical Emissivity
  0.9,                                    ! Back Side Infrared Hemispherical Emissivity
  0.0192257;                              ! Conductivity {W/m-K}

