
OS:Version,
  {499a5857-1b23-4535-84b9-fa026c1db054}, ! Handle
  0.9.3;                                  ! Version Identifier

OS:Construction,
  {54df28b7-6ae9-4645-ab30-51d8b22221fc}, ! Handle
  90.1-1999 Nonres B14 Skylight without Curb, ! Name
  ,                                       ! Surface Rendering Name
  {c2bc71ab-5bb2-4929-8b96-df121437b1ad}; ! Layer 1

OS:WindowMaterial:Glazing,
  {c2bc71ab-5bb2-4929-8b96-df121437b1ad}, ! Handle
  Theoretical Glass [32],                 ! Name
  SpectralAverage,                        ! Optical Data Type
  ,                                       ! Window Glass Spectral Data Set Name
  0.003,                                  ! Thickness {m}
  0.481761,                               ! Solar Transmittance at Normal Incidence
  0.468239,                               ! Front Side Solar Reflectance at Normal Incidence
  0.468239,                               ! Back Side Solar Reflectance at Normal Incidence
  0.529698,                               ! Visible Transmittance at Normal Incidence
  0.420302,                               ! Front Side Visible Reflectance at Normal Incidence
  0.420302,                               ! Back Side Visible Reflectance at Normal Incidence
  0,                                      ! Infrared Transmittance at Normal Incidence
  0.9,                                    ! Front Side Infrared Hemispherical Emissivity
  0.9,                                    ! Back Side Infrared Hemispherical Emissivity
  0.03026;                                ! Conductivity {W/m-K}

OS:ComponentCost:LineItem,
  {eb26941d-1812-4cf4-a007-7dd08bf6e3b9}, ! Handle
  90.1-1999 Nonres B14 Skylight without Curb, ! Name
  ,                                       ! Type
  Construction,                           ! Line Item Type
  90.1-1999 Nonres B14 Skylight without Curb, ! Item Name
  ,                                       ! Object End Use Key
  ,                                       ! Quantity {dimensionless}
  514.818,                                ! Material Cost {$}
  CostPerArea;                            ! Material Cost Units

OS:ComponentData,
  {603bd94b-023d-492d-8181-92ce724047af}, ! Handle
  Component Data 1,                       ! Name
  {99f047a0-246f-4d3f-a6a4-334f1f14c6ff}, ! UUID
  {8bab3a06-1661-47a0-969c-496a9d355b08}, ! Version UUID
  1363981104,                             ! Creation Timestamp
  1363981104,                             ! Version Timestamp
  {54df28b7-6ae9-4645-ab30-51d8b22221fc}, ! Name of Object 1
  {c2bc71ab-5bb2-4929-8b96-df121437b1ad}, ! Name of Object 2
  {eb26941d-1812-4cf4-a007-7dd08bf6e3b9}; ! Name of Object 3

