
OS:Version,
  {ee0fecfa-2ef6-4116-be55-d95c55fe03f9}, ! Handle
  0.9.3;                                  ! Version Identifier

OS:Construction,
  {9091e17d-ba94-4705-a765-e7c0f968d726}, ! Handle
  189.1-2009 Nonres 6B Roof IEAD,         ! Name
  ,                                       ! Surface Rendering Name
  {a20c067d-c4df-4fb7-a1aa-d35ed96dd638}, ! Layer 1
  {232581b3-1ae8-4d49-b7ab-faeecac1d97a}, ! Layer 2
  {caadbd67-089a-4e1f-9a44-556f0a086a34}; ! Layer 3

OS:Material,
  {a20c067d-c4df-4fb7-a1aa-d35ed96dd638}, ! Handle
  Roof Membrane,                          ! Name
  VeryRough,                              ! Roughness
  0.0095,                                 ! Thickness {m}
  0.16,                                   ! Conductivity {W/m-K}
  1121.29,                                ! Density {kg/m3}
  1460,                                   ! Specific Heat {J/kg-K}
  0.9,                                    ! Thermal Absorptance
  0.7,                                    ! Solar Absorptance
  0.7;                                    ! Visible Absorptance

OS:Material,
  {232581b3-1ae8-4d49-b7ab-faeecac1d97a}, ! Handle
  Roof Insulation [24],                   ! Name
  MediumRough,                            ! Roughness
  0.260107,                               ! Thickness {m}
  0.049,                                  ! Conductivity {W/m-K}
  265,                                    ! Density {kg/m3}
  836.8,                                  ! Specific Heat {J/kg-K}
  0.9,                                    ! Thermal Absorptance
  0.7,                                    ! Solar Absorptance
  0.7;                                    ! Visible Absorptance

OS:Material,
  {caadbd67-089a-4e1f-9a44-556f0a086a34}, ! Handle
  Metal Decking,                          ! Name
  MediumSmooth,                           ! Roughness
  0.001524,                               ! Thickness {m}
  45.006,                                 ! Conductivity {W/m-K}
  7680,                                   ! Density {kg/m3}
  418.4,                                  ! Specific Heat {J/kg-K}
  0.9,                                    ! Thermal Absorptance
  0.7,                                    ! Solar Absorptance
  0.3;                                    ! Visible Absorptance

OS:ComponentCost:LineItem,
  {b872588a-1574-4173-a4ab-78087636b1a7}, ! Handle
  189.1-2009 Nonres 6B Roof IEAD,         ! Name
  ,                                       ! Type
  Construction,                           ! Line Item Type
  189.1-2009 Nonres 6B Roof IEAD,         ! Item Name
  ,                                       ! Object End Use Key
  ,                                       ! Quantity {dimensionless}
  61.146,                                 ! Material Cost {$}
  CostPerArea;                            ! Material Cost Units

OS:ComponentData,
  {5d29b440-5d78-4606-adc3-ea629aac82ed}, ! Handle
  Component Data 1,                       ! Name
  {4cf03c09-abfb-4148-be4c-9c4de721bf05}, ! UUID
  {37764c9c-9b3b-4843-a64b-bf69cb194a36}, ! Version UUID
  1363980946,                             ! Creation Timestamp
  1363980946,                             ! Version Timestamp
  {9091e17d-ba94-4705-a765-e7c0f968d726}, ! Name of Object 1
  {a20c067d-c4df-4fb7-a1aa-d35ed96dd638}, ! Name of Object 2
  {232581b3-1ae8-4d49-b7ab-faeecac1d97a}, ! Name of Object 3
  {caadbd67-089a-4e1f-9a44-556f0a086a34}, ! Name of Object 4
  {b872588a-1574-4173-a4ab-78087636b1a7}; ! Name of Object 5

