
OS:Version,
  {46b78efe-81e3-4f4e-a7e7-0efa4ed5842f}, ! Handle
  0.9.3;                                  ! Version Identifier

OS:ComponentCost:LineItem,
  {b078af36-2fb8-4f53-9acc-8a8ae5916c80}, ! Handle
  189.1-2009 Nonres 6B Roof IEAD,         ! Name
  ,                                       ! Type
  Construction,                           ! Line Item Type
  189.1-2009 Nonres 6B Roof IEAD,         ! Item Name
  ,                                       ! Object End Use Key
  ,                                       ! Quantity {dimensionless}
  61.146,                                 ! Material Cost {$}
  CostPerArea;                            ! Material Cost Units

OS:Material,
  {8e5909d3-02a7-4577-86d4-3000f1bfc000}, ! Handle
  Roof Membrane,                          ! Name
  VeryRough,                              ! Roughness
  0.0095,                                 ! Thickness {m}
  0.16,                                   ! Conductivity {W/m-K}
  1121.29,                                ! Density {kg/m3}
  1460,                                   ! Specific Heat {J/kg-K}
  0.9,                                    ! Thermal Absorptance
  0.7,                                    ! Solar Absorptance
  0.7;                                    ! Visible Absorptance

OS:Construction,
  {db968ce4-2351-44ff-99a6-450f7179f4aa}, ! Handle
  189.1-2009 Nonres 6B Roof IEAD,         ! Name
  ,                                       ! Surface Rendering Name
  {8e5909d3-02a7-4577-86d4-3000f1bfc000}, ! Layer 1
  {9ee05425-c243-4ab8-bb68-9ea987195fd3}, ! Layer 2
  {03f9c48e-0264-4042-8897-07549a97fc4e}; ! Layer 3

OS:Material,
  {9ee05425-c243-4ab8-bb68-9ea987195fd3}, ! Handle
  Roof Insulation [24],                   ! Name
  MediumRough,                            ! Roughness
  0.260107,                               ! Thickness {m}
  0.049,                                  ! Conductivity {W/m-K}
  265,                                    ! Density {kg/m3}
  836.8,                                  ! Specific Heat {J/kg-K}
  0.9,                                    ! Thermal Absorptance
  0.7,                                    ! Solar Absorptance
  0.7;                                    ! Visible Absorptance

OS:Material,
  {03f9c48e-0264-4042-8897-07549a97fc4e}, ! Handle
  Metal Decking,                          ! Name
  MediumSmooth,                           ! Roughness
  0.001524,                               ! Thickness {m}
  45.006,                                 ! Conductivity {W/m-K}
  7680,                                   ! Density {kg/m3}
  418.4,                                  ! Specific Heat {J/kg-K}
  0.9,                                    ! Thermal Absorptance
  0.7,                                    ! Solar Absorptance
  0.3;                                    ! Visible Absorptance

