
! 
OS:Version,
  {9c37d538-db0d-4a47-9850-5bede7e76bd5}, !- Handle
  1.13.0;                                 !- Version Identifier


! {"nombreProductoCorto": "STADIP 66.2 con COOL-LITE ST150", "codigoEAN": "", "handle": "a30d93d2-f7ff-4347-9181-6999408a737f", "g": 0.53, "tV": 0.52, "u": 5.5, "nombreProducto": "STADIP 66.2 con COOL-LITE ST150\nU:5.5 W/m2K - g:0.53 - Tv: 0.52"}
OS:WindowMaterial:SimpleGlazingSystem,
  {a30d93d2-f7ff-4347-9181-6999408a737f}, !- Handle
  STADIP 66.2 con COOL-LITE ST150, !- Name
  5.5,                                    !- U-Factor {W/m2-K}
  0.53,                                    !- Solar Heat Gain Coefficient
  0.52;                                    !- Visible Transmittance     
  
  
OS:Construction,
  {ffb76751-253d-44d4-aad7-bea4a01b7103}, !- Handle
  STADIP 66.2 con COOL-LITE ST150,                         !- Name
  ,                                       !- Surface Rendering Name
  {a30d93d2-f7ff-4347-9181-6999408a737f}; !- Layer 1  

