
OS:Version,
  {e0319c14-0ae1-49a1-97ae-b6a13cc3dde1}, ! Handle
  0.9.3;                                  ! Version Identifier

OS:Construction,
  {f5e52289-5e96-4705-a335-2703f2a40ecf}, ! Handle
  90.1-2001 Res B5 Roof Metal Building,   ! Name
  ,                                       ! Surface Rendering Name
  {ef3a1097-007f-4256-9321-57e8b6b70803}, ! Layer 1
  {752018c0-2809-42ac-a3d0-4024d8d2918a}; ! Layer 2

OS:Material,
  {ef3a1097-007f-4256-9321-57e8b6b70803}, ! Handle
  Metal Roofing,                          ! Name
  MediumSmooth,                           ! Roughness
  0.001524,                               ! Thickness {m}
  45.006,                                 ! Conductivity {W/m-K}
  7680,                                   ! Density {kg/m3}
  418.4,                                  ! Specific Heat {J/kg-K}
  0.9,                                    ! Thermal Absorptance
  0.7,                                    ! Solar Absorptance
  0.3;                                    ! Visible Absorptance

OS:Material,
  {752018c0-2809-42ac-a3d0-4024d8d2918a}, ! Handle
  Roof Insulation [1],                    ! Name
  MediumRough,                            ! Roughness
  0.123533,                               ! Thickness {m}
  0.049,                                  ! Conductivity {W/m-K}
  265,                                    ! Density {kg/m3}
  836.8,                                  ! Specific Heat {J/kg-K}
  0.9,                                    ! Thermal Absorptance
  0.7,                                    ! Solar Absorptance
  0.7;                                    ! Visible Absorptance

OS:ComponentCost:LineItem,
  {07895653-595e-4d79-bf9c-44e4f9b0d104}, ! Handle
  90.1-2001 Res B5 Roof Metal Building,   ! Name
  ,                                       ! Type
  Construction,                           ! Line Item Type
  90.1-2001 Res B5 Roof Metal Building,   ! Item Name
  ,                                       ! Object End Use Key
  ,                                       ! Quantity {dimensionless}
  38.206,                                 ! Material Cost {$}
  CostPerArea;                            ! Material Cost Units

OS:ComponentData,
  {e3437095-4353-4886-959a-bedb525c0b58}, ! Handle
  Component Data 1,                       ! Name
  {f35d2729-bd19-42fb-8314-a8bcb9d83728}, ! UUID
  {cd95a386-4e9e-4e81-9cc2-af52075590ac}, ! Version UUID
  1363981469,                             ! Creation Timestamp
  1363981469,                             ! Version Timestamp
  {f5e52289-5e96-4705-a335-2703f2a40ecf}, ! Name of Object 1
  {ef3a1097-007f-4256-9321-57e8b6b70803}, ! Name of Object 2
  {752018c0-2809-42ac-a3d0-4024d8d2918a}, ! Name of Object 3
  {07895653-595e-4d79-bf9c-44e4f9b0d104}; ! Name of Object 4

