
OS:Version,
  {58fc93f2-0b3f-498d-9f3a-ab533157599a}, ! Handle
  0.9.3;                                  ! Version Identifier

OS:Material,
  {d0058fd3-d67b-42ba-8f8f-4ecd2ab25749}, ! Handle
  Metal Roofing,                          ! Name
  MediumSmooth,                           ! Roughness
  0.001524,                               ! Thickness {m}
  45.006,                                 ! Conductivity {W/m-K}
  7680,                                   ! Density {kg/m3}
  418.4,                                  ! Specific Heat {J/kg-K}
  0.9,                                    ! Thermal Absorptance
  0.7,                                    ! Solar Absorptance
  0.3;                                    ! Visible Absorptance

OS:ComponentCost:LineItem,
  {159b85b6-1ffa-4599-a5d7-99c55327f667}, ! Handle
  90.1-2001 Res B5 Roof Metal Building,   ! Name
  ,                                       ! Type
  Construction,                           ! Line Item Type
  90.1-2001 Res B5 Roof Metal Building,   ! Item Name
  ,                                       ! Object End Use Key
  ,                                       ! Quantity {dimensionless}
  38.206,                                 ! Material Cost {$}
  CostPerArea;                            ! Material Cost Units

OS:Construction,
  {61a29378-4cb8-4bf9-a90e-f240b66a38f9}, ! Handle
  90.1-2001 Res B5 Roof Metal Building,   ! Name
  ,                                       ! Surface Rendering Name
  {d0058fd3-d67b-42ba-8f8f-4ecd2ab25749}, ! Layer 1
  {1a8d6090-ac8c-452b-af1b-188bc0b77a12}; ! Layer 2

OS:Material,
  {1a8d6090-ac8c-452b-af1b-188bc0b77a12}, ! Handle
  Roof Insulation [1],                    ! Name
  MediumRough,                            ! Roughness
  0.123533,                               ! Thickness {m}
  0.049,                                  ! Conductivity {W/m-K}
  265,                                    ! Density {kg/m3}
  836.8,                                  ! Specific Heat {J/kg-K}
  0.9,                                    ! Thermal Absorptance
  0.7,                                    ! Solar Absorptance
  0.7;                                    ! Visible Absorptance

