
OS:Version,
  {22f1ee67-7f27-471d-89cf-ec79abc187b5}, ! Handle
  0.9.3;                                  ! Version Identifier

OS:ComponentCost:LineItem,
  {0c34943b-3b5b-4bbd-9f0f-01703eb0bd15}, ! Handle
  90.1-2007 Res 6B Ext Wall Mass,         ! Name
  ,                                       ! Type
  Construction,                           ! Line Item Type
  90.1-2007 Res 6B Ext Wall Mass,         ! Item Name
  ,                                       ! Object End Use Key
  ,                                       ! Quantity {dimensionless}
  70.26,                                  ! Material Cost {$}
  CostPerArea;                            ! Material Cost Units

OS:Construction,
  {93617e1b-ebd7-4d87-8a24-5ba9ebc8508a}, ! Handle
  90.1-2007 Res 6B Ext Wall Mass,         ! Name
  ,                                       ! Surface Rendering Name
  {3e590f80-fefd-4a30-bb92-c374b45fd028}, ! Layer 1
  {e71b5ff8-5365-48bf-9670-e9fe19050e2f}, ! Layer 2
  {f163b779-2080-4528-9ccd-aaa13b8630b3}, ! Layer 3
  {056a1a51-b4a9-4d86-ba3d-050de21562e1}; ! Layer 4

OS:Material,
  {3e590f80-fefd-4a30-bb92-c374b45fd028}, ! Handle
  1IN Stucco,                             ! Name
  Smooth,                                 ! Roughness
  0.0253,                                 ! Thickness {m}
  0.6918,                                 ! Conductivity {W/m-K}
  1858,                                   ! Density {kg/m3}
  837,                                    ! Specific Heat {J/kg-K}
  0.9,                                    ! Thermal Absorptance
  0.92,                                   ! Solar Absorptance
  0.92;                                   ! Visible Absorptance

OS:Material,
  {e71b5ff8-5365-48bf-9670-e9fe19050e2f}, ! Handle
  8IN Concrete HW,                        ! Name
  MediumRough,                            ! Roughness
  0.2033,                                 ! Thickness {m}
  1.7296,                                 ! Conductivity {W/m-K}
  2243,                                   ! Density {kg/m3}
  837,                                    ! Specific Heat {J/kg-K}
  0.9,                                    ! Thermal Absorptance
  0.65,                                   ! Solar Absorptance
  0.65;                                   ! Visible Absorptance

OS:Material,
  {f163b779-2080-4528-9ccd-aaa13b8630b3}, ! Handle
  Wall Insulation [22],                   ! Name
  MediumRough,                            ! Roughness
  0.0905334,                              ! Thickness {m}
  0.0432,                                 ! Conductivity {W/m-K}
  91,                                     ! Density {kg/m3}
  837,                                    ! Specific Heat {J/kg-K}
  0.9,                                    ! Thermal Absorptance
  0.5,                                    ! Solar Absorptance
  0.5;                                    ! Visible Absorptance

OS:Material,
  {056a1a51-b4a9-4d86-ba3d-050de21562e1}, ! Handle
  1/2IN Gypsum,                           ! Name
  Smooth,                                 ! Roughness
  0.01271,                                ! Thickness {m}
  0.16,                                   ! Conductivity {W/m-K}
  784.9,                                  ! Density {kg/m3}
  830,                                    ! Specific Heat {J/kg-K}
  0.9,                                    ! Thermal Absorptance
  0.92,                                   ! Solar Absorptance
  0.92;                                   ! Visible Absorptance

