
OS:Version,
  {304905cb-0279-4248-b3e4-21e3bad50e62}, ! Handle
  0.9.3;                                  ! Version Identifier

OS:Construction,
  {b3124443-a86a-4cce-a903-79413f3039fb}, ! Handle
  90.1-2007 Res 6B Ext Wall Mass,         ! Name
  ,                                       ! Surface Rendering Name
  {bceb9710-9666-4590-a774-f930b8b31d19}, ! Layer 1
  {667d76e6-435e-4cbc-ba18-97e431a867d5}, ! Layer 2
  {0b6d76f8-5b7e-4c2c-9c42-5630b611856e}, ! Layer 3
  {f6337e7c-a787-445f-a339-205b981988a1}; ! Layer 4

OS:Material,
  {bceb9710-9666-4590-a774-f930b8b31d19}, ! Handle
  1IN Stucco,                             ! Name
  Smooth,                                 ! Roughness
  0.0253,                                 ! Thickness {m}
  0.6918,                                 ! Conductivity {W/m-K}
  1858,                                   ! Density {kg/m3}
  837,                                    ! Specific Heat {J/kg-K}
  0.9,                                    ! Thermal Absorptance
  0.92,                                   ! Solar Absorptance
  0.92;                                   ! Visible Absorptance

OS:Material,
  {667d76e6-435e-4cbc-ba18-97e431a867d5}, ! Handle
  8IN Concrete HW,                        ! Name
  MediumRough,                            ! Roughness
  0.2033,                                 ! Thickness {m}
  1.7296,                                 ! Conductivity {W/m-K}
  2243,                                   ! Density {kg/m3}
  837,                                    ! Specific Heat {J/kg-K}
  0.9,                                    ! Thermal Absorptance
  0.65,                                   ! Solar Absorptance
  0.65;                                   ! Visible Absorptance

OS:Material,
  {0b6d76f8-5b7e-4c2c-9c42-5630b611856e}, ! Handle
  Wall Insulation [22],                   ! Name
  MediumRough,                            ! Roughness
  0.0905334,                              ! Thickness {m}
  0.0432,                                 ! Conductivity {W/m-K}
  91,                                     ! Density {kg/m3}
  837,                                    ! Specific Heat {J/kg-K}
  0.9,                                    ! Thermal Absorptance
  0.5,                                    ! Solar Absorptance
  0.5;                                    ! Visible Absorptance

OS:Material,
  {f6337e7c-a787-445f-a339-205b981988a1}, ! Handle
  1/2IN Gypsum,                           ! Name
  Smooth,                                 ! Roughness
  0.01271,                                ! Thickness {m}
  0.16,                                   ! Conductivity {W/m-K}
  784.9,                                  ! Density {kg/m3}
  830,                                    ! Specific Heat {J/kg-K}
  0.9,                                    ! Thermal Absorptance
  0.92,                                   ! Solar Absorptance
  0.92;                                   ! Visible Absorptance

OS:ComponentCost:LineItem,
  {ab44122b-e4d8-49b0-956f-7de05176f77d}, ! Handle
  90.1-2007 Res 6B Ext Wall Mass,         ! Name
  ,                                       ! Type
  Construction,                           ! Line Item Type
  90.1-2007 Res 6B Ext Wall Mass,         ! Item Name
  ,                                       ! Object End Use Key
  ,                                       ! Quantity {dimensionless}
  70.26,                                  ! Material Cost {$}
  CostPerArea;                            ! Material Cost Units

OS:ComponentData,
  {159678be-1b13-40e2-8ced-f2fc37f29daa}, ! Handle
  Component Data 1,                       ! Name
  {48ff5b47-1e9f-42a4-91e9-33181b6e51f7}, ! UUID
  {88a74bb3-effd-4071-b509-b32dc3df73a9}, ! Version UUID
  1363981863,                             ! Creation Timestamp
  1363981863,                             ! Version Timestamp
  {b3124443-a86a-4cce-a903-79413f3039fb}, ! Name of Object 1
  {bceb9710-9666-4590-a774-f930b8b31d19}, ! Name of Object 2
  {667d76e6-435e-4cbc-ba18-97e431a867d5}, ! Name of Object 3
  {0b6d76f8-5b7e-4c2c-9c42-5630b611856e}, ! Name of Object 4
  {f6337e7c-a787-445f-a339-205b981988a1}, ! Name of Object 5
  {ab44122b-e4d8-49b0-956f-7de05176f77d}; ! Name of Object 6

