
OS:Version,
  {dc4dab5d-c5ee-4ead-ade3-15e7d55e6395}, ! Handle
  0.9.3;                                  ! Version Identifier

OS:Construction,
  {94ae8d7b-a54f-44c7-8564-8bbc7426da5f}, ! Handle
  90.1 Windows Window Fixed 2512 Vnl-Grn-Std-Clr, ! Name
  ,                                       ! Surface Rendering Name
  {4475e446-e522-4c2d-9475-733fce56b982}; ! Layer 1

OS:WindowMaterial:Glazing,
  {4475e446-e522-4c2d-9475-733fce56b982}, ! Handle
  Theoretical Glass [336],                ! Name
  SpectralAverage,                        ! Optical Data Type
  ,                                       ! Window Glass Spectral Data Set Name
  0.003,                                  ! Thickness {m}
  0.423708,                               ! Solar Transmittance at Normal Incidence
  0.526292,                               ! Front Side Solar Reflectance at Normal Incidence
  0.526292,                               ! Back Side Solar Reflectance at Normal Incidence
  0.469723,                               ! Visible Transmittance at Normal Incidence
  0.480277,                               ! Front Side Visible Reflectance at Normal Incidence
  0.480277,                               ! Back Side Visible Reflectance at Normal Incidence
  0,                                      ! Infrared Transmittance at Normal Incidence
  0.9,                                    ! Front Side Infrared Hemispherical Emissivity
  0.9,                                    ! Back Side Infrared Hemispherical Emissivity
  0.0161129;                              ! Conductivity {W/m-K}

OS:ComponentCost:LineItem,
  {33eac081-de9c-45e5-9ebf-6920f640c34b}, ! Handle
  90.1 Windows Window Fixed 2512 Vnl-Grn-Std-Clr, ! Name
  ,                                       ! Type
  Construction,                           ! Line Item Type
  90.1 Windows Window Fixed 2512 Vnl-Grn-Std-Clr, ! Item Name
  ,                                       ! Object End Use Key
  ,                                       ! Quantity {dimensionless}
  0,                                      ! Material Cost {$}
  CostPerArea;                            ! Material Cost Units

