
OS:Version,
  {1da0e8a2-41a7-4f1a-97a3-a98d39e748c0}, ! Handle
  0.9.3;                                  ! Version Identifier

OS:Material,
  {ad03258c-02d0-406b-bde6-d0427b7207f1}, ! Handle
  1/2IN Gypsum,                           ! Name
  Smooth,                                 ! Roughness
  0.01271,                                ! Thickness {m}
  0.16,                                   ! Conductivity {W/m-K}
  784.9,                                  ! Density {kg/m3}
  830,                                    ! Specific Heat {J/kg-K}
  0.9,                                    ! Thermal Absorptance
  0.92,                                   ! Solar Absorptance
  0.92;                                   ! Visible Absorptance

OS:Material,
  {b0d657fd-e9f3-4b4f-9d65-bee67d132475}, ! Handle
  Roof Insulation [2],                    ! Name
  MediumRough,                            ! Roughness
  0.221604,                               ! Thickness {m}
  0.049,                                  ! Conductivity {W/m-K}
  265,                                    ! Density {kg/m3}
  836.8,                                  ! Specific Heat {J/kg-K}
  0.9,                                    ! Thermal Absorptance
  0.7,                                    ! Solar Absorptance
  0.7;                                    ! Visible Absorptance

OS:Material,
  {cef42040-4775-4463-ad1c-4d77e04f281e}, ! Handle
  1IN Wood Decking,                       ! Name
  MediumSmooth,                           ! Roughness
  0.0254,                                 ! Thickness {m}
  0.1211,                                 ! Conductivity {W/m-K}
  593,                                    ! Density {kg/m3}
  2510,                                   ! Specific Heat {J/kg-K}
  0.9,                                    ! Thermal Absorptance
  0.78,                                   ! Solar Absorptance
  0.78;                                   ! Visible Absorptance

OS:ComponentCost:LineItem,
  {6a58f0ba-828f-4d34-bd70-292bc0f03c36}, ! Handle
  90.1-2001 Res B7 Roof Attic and Other,  ! Name
  ,                                       ! Type
  Construction,                           ! Line Item Type
  90.1-2001 Res B7 Roof Attic and Other,  ! Item Name
  ,                                       ! Object End Use Key
  ,                                       ! Quantity {dimensionless}
  33.39,                                  ! Material Cost {$}
  CostPerArea;                            ! Material Cost Units

OS:Material,
  {173b3587-ec3c-4abe-abf9-7b979ba31b4d}, ! Handle
  Wood Shingles,                          ! Name
  VeryRough,                              ! Roughness
  0.0178,                                 ! Thickness {m}
  0.115,                                  ! Conductivity {W/m-K}
  513,                                    ! Density {kg/m3}
  1255,                                   ! Specific Heat {J/kg-K}
  0.9,                                    ! Thermal Absorptance
  0.78,                                   ! Solar Absorptance
  0.78;                                   ! Visible Absorptance

OS:Construction,
  {f274d6af-465d-41c6-af62-dd1d75c99700}, ! Handle
  90.1-2001 Res B7 Roof Attic and Other,  ! Name
  ,                                       ! Surface Rendering Name
  {173b3587-ec3c-4abe-abf9-7b979ba31b4d}, ! Layer 1
  {cef42040-4775-4463-ad1c-4d77e04f281e}, ! Layer 2
  {b0d657fd-e9f3-4b4f-9d65-bee67d132475}, ! Layer 3
  {ad03258c-02d0-406b-bde6-d0427b7207f1}; ! Layer 4

