
OS:Version,
  {e0928a92-051d-4b83-976c-f20ee71ce558}, ! Handle
  0.9.3;                                  ! Version Identifier

OS:Material,
  {41e11f85-7cec-4fec-a114-a240f1aefea3}, ! Handle
  8IN Concrete HW,                        ! Name
  MediumRough,                            ! Roughness
  0.2033,                                 ! Thickness {m}
  1.7296,                                 ! Conductivity {W/m-K}
  2243,                                   ! Density {kg/m3}
  837,                                    ! Specific Heat {J/kg-K}
  0.9,                                    ! Thermal Absorptance
  0.65,                                   ! Solar Absorptance
  0.65;                                   ! Visible Absorptance

OS:Material,
  {b91af129-675b-4bf0-b31e-0fdc10db7e52}, ! Handle
  Wall Insulation [8],                    ! Name
  MediumRough,                            ! Roughness
  0.067929,                               ! Thickness {m}
  0.0432,                                 ! Conductivity {W/m-K}
  91,                                     ! Density {kg/m3}
  837,                                    ! Specific Heat {J/kg-K}
  0.9,                                    ! Thermal Absorptance
  0.5,                                    ! Solar Absorptance
  0.5;                                    ! Visible Absorptance

OS:Material,
  {c0656673-0569-4de0-a97e-0fbe7ad0ae89}, ! Handle
  1/2IN Gypsum,                           ! Name
  Smooth,                                 ! Roughness
  0.01271,                                ! Thickness {m}
  0.16,                                   ! Conductivity {W/m-K}
  784.9,                                  ! Density {kg/m3}
  830,                                    ! Specific Heat {J/kg-K}
  0.9,                                    ! Thermal Absorptance
  0.92,                                   ! Solar Absorptance
  0.92;                                   ! Visible Absorptance

OS:ComponentCost:LineItem,
  {e58e2762-a9b3-40b1-ac44-a63581b88dc6}, ! Handle
  90.1-2001 Res B19 Ext Wall Mass,        ! Name
  ,                                       ! Type
  Construction,                           ! Line Item Type
  90.1-2001 Res B19 Ext Wall Mass,        ! Item Name
  ,                                       ! Object End Use Key
  ,                                       ! Quantity {dimensionless}
  65.826,                                 ! Material Cost {$}
  CostPerArea;                            ! Material Cost Units

OS:Construction,
  {9ad0a5d6-87c4-4af4-b2d2-2772622fa850}, ! Handle
  90.1-2001 Res B19 Ext Wall Mass,        ! Name
  ,                                       ! Surface Rendering Name
  {df6c7ceb-2d79-46a5-bdd2-edc347cfedc0}, ! Layer 1
  {41e11f85-7cec-4fec-a114-a240f1aefea3}, ! Layer 2
  {b91af129-675b-4bf0-b31e-0fdc10db7e52}, ! Layer 3
  {c0656673-0569-4de0-a97e-0fbe7ad0ae89}; ! Layer 4

OS:Material,
  {df6c7ceb-2d79-46a5-bdd2-edc347cfedc0}, ! Handle
  1IN Stucco,                             ! Name
  Smooth,                                 ! Roughness
  0.0253,                                 ! Thickness {m}
  0.6918,                                 ! Conductivity {W/m-K}
  1858,                                   ! Density {kg/m3}
  837,                                    ! Specific Heat {J/kg-K}
  0.9,                                    ! Thermal Absorptance
  0.92,                                   ! Solar Absorptance
  0.92;                                   ! Visible Absorptance

