
OS:Version,
  {3b8104dd-1675-43f9-bc38-f38d5f26f153}, ! Handle
  0.9.3;                                  ! Version Identifier

OS:Material,
  {b67b758f-6869-48dd-a303-bfae6a3f191f}, ! Handle
  Wood Shingles,                          ! Name
  VeryRough,                              ! Roughness
  0.0178,                                 ! Thickness {m}
  0.115,                                  ! Conductivity {W/m-K}
  513,                                    ! Density {kg/m3}
  1255,                                   ! Specific Heat {J/kg-K}
  0.9,                                    ! Thermal Absorptance
  0.78,                                   ! Solar Absorptance
  0.78;                                   ! Visible Absorptance

OS:Material,
  {11d53cce-add9-4d2c-a90c-123f835bf2ae}, ! Handle
  1IN Wood Decking,                       ! Name
  MediumSmooth,                           ! Roughness
  0.0254,                                 ! Thickness {m}
  0.1211,                                 ! Conductivity {W/m-K}
  593,                                    ! Density {kg/m3}
  2510,                                   ! Specific Heat {J/kg-K}
  0.9,                                    ! Thermal Absorptance
  0.78,                                   ! Solar Absorptance
  0.78;                                   ! Visible Absorptance

OS:Material,
  {36a7b116-095a-4b80-ab25-57bdcf0bbdd8}, ! Handle
  Roof Insulation [2],                    ! Name
  MediumRough,                            ! Roughness
  0.221604,                               ! Thickness {m}
  0.049,                                  ! Conductivity {W/m-K}
  265,                                    ! Density {kg/m3}
  836.8,                                  ! Specific Heat {J/kg-K}
  0.9,                                    ! Thermal Absorptance
  0.7,                                    ! Solar Absorptance
  0.7;                                    ! Visible Absorptance

OS:Construction,
  {a3ddea01-ec7f-4b02-98a4-a18a8db54015}, ! Handle
  90.1-2001 Nonres B10 Roof Attic and Other, ! Name
  ,                                       ! Surface Rendering Name
  {b67b758f-6869-48dd-a303-bfae6a3f191f}, ! Layer 1
  {11d53cce-add9-4d2c-a90c-123f835bf2ae}, ! Layer 2
  {36a7b116-095a-4b80-ab25-57bdcf0bbdd8}, ! Layer 3
  {8f3aeb9b-62d3-4b23-8378-01a9b5d0f006}; ! Layer 4

OS:Material,
  {8f3aeb9b-62d3-4b23-8378-01a9b5d0f006}, ! Handle
  1/2IN Gypsum,                           ! Name
  Smooth,                                 ! Roughness
  0.01271,                                ! Thickness {m}
  0.16,                                   ! Conductivity {W/m-K}
  784.9,                                  ! Density {kg/m3}
  830,                                    ! Specific Heat {J/kg-K}
  0.9,                                    ! Thermal Absorptance
  0.92,                                   ! Solar Absorptance
  0.92;                                   ! Visible Absorptance

OS:ComponentCost:LineItem,
  {653b4f26-8479-4c64-b8f0-7bc3f6d38a7e}, ! Handle
  90.1-2001 Nonres B10 Roof Attic and Other, ! Name
  ,                                       ! Type
  Construction,                           ! Line Item Type
  90.1-2001 Nonres B10 Roof Attic and Other, ! Item Name
  ,                                       ! Object End Use Key
  ,                                       ! Quantity {dimensionless}
  33.39,                                  ! Material Cost {$}
  CostPerArea;                            ! Material Cost Units

