
OS:Version,
  {ab5d9287-801c-4a13-a167-a1863f991d15}, ! Handle
  0.9.3;                                  ! Version Identifier

OS:Material,
  {8998e440-dc7f-419f-a05f-401ed0c2ef8d}, ! Handle
  Wall Insulation [6],                    ! Name
  MediumRough,                            ! Roughness
  0.0678449,                              ! Thickness {m}
  0.045,                                  ! Conductivity {W/m-K}
  265,                                    ! Density {kg/m3}
  836.8,                                  ! Specific Heat {J/kg-K}
  0.9,                                    ! Thermal Absorptance
  0.7,                                    ! Solar Absorptance
  0.7;                                    ! Visible Absorptance

OS:Material:NoMass,
  {6419cd1d-f6b9-452f-94f4-63b7ba458fcc}, ! Handle
  MAT-SHEATH,                             ! Name
  Rough,                                  ! Roughness
  0.36256,                                ! Thermal Resistance {m2-K/W}
  0.9,                                    ! Thermal Absorptance
  0.7,                                    ! Solar Absorptance
  0.7;                                    ! Visible Absorptance

OS:Construction,
  {9fbd0e2c-c98f-4b9c-8f3b-19e1bac41fdc}, ! Handle
  90.1-2001 Res B1 Ext Wall Steel-Framed, ! Name
  ,                                       ! Surface Rendering Name
  {6419cd1d-f6b9-452f-94f4-63b7ba458fcc}, ! Layer 1
  {8998e440-dc7f-419f-a05f-401ed0c2ef8d}, ! Layer 2
  {19083909-8467-4e39-be8c-9f060c60b867}; ! Layer 3

OS:Material,
  {19083909-8467-4e39-be8c-9f060c60b867}, ! Handle
  1/2IN Gypsum,                           ! Name
  Smooth,                                 ! Roughness
  0.01271,                                ! Thickness {m}
  0.16,                                   ! Conductivity {W/m-K}
  784.9,                                  ! Density {kg/m3}
  830,                                    ! Specific Heat {J/kg-K}
  0.9,                                    ! Thermal Absorptance
  0.92,                                   ! Solar Absorptance
  0.92;                                   ! Visible Absorptance

OS:ComponentCost:LineItem,
  {9165268a-8bff-4a8d-b1fe-205fce087253}, ! Handle
  90.1-2001 Res B1 Ext Wall Steel-Framed, ! Name
  ,                                       ! Type
  Construction,                           ! Line Item Type
  90.1-2001 Res B1 Ext Wall Steel-Framed, ! Item Name
  ,                                       ! Object End Use Key
  ,                                       ! Quantity {dimensionless}
  91.749,                                 ! Material Cost {$}
  CostPerArea;                            ! Material Cost Units

