
OS:Version,
  {d2a02b56-54a7-48b2-b578-2d5a1472204b}, ! Handle
  0.9.3;                                  ! Version Identifier

OS:Material,
  {9fbd7e38-12e9-4b56-93a9-798a15a54dfc}, ! Handle
  Wall Insulation,                        ! Name
  MediumRough,                            ! Roughness
  0.0598725,                              ! Thickness {m}
  0.045,                                  ! Conductivity {W/m-K}
  265,                                    ! Density {kg/m3}
  836.8,                                  ! Specific Heat {J/kg-K}
  0.9,                                    ! Thermal Absorptance
  0.7,                                    ! Solar Absorptance
  0.7;                                    ! Visible Absorptance

OS:ComponentCost:LineItem,
  {f9b5490f-fcce-4894-8893-874bae95af22}, ! Handle
  90.1-2001 Res B9 Ext Wall Metal Building, ! Name
  ,                                       ! Type
  Construction,                           ! Line Item Type
  90.1-2001 Res B9 Ext Wall Metal Building, ! Item Name
  ,                                       ! Object End Use Key
  ,                                       ! Quantity {dimensionless}
  98.78,                                  ! Material Cost {$}
  CostPerArea;                            ! Material Cost Units

OS:Material,
  {f5277470-f001-4d2c-96f2-606ec2e88dd4}, ! Handle
  Metal Siding,                           ! Name
  Smooth,                                 ! Roughness
  0.0015,                                 ! Thickness {m}
  44.96,                                  ! Conductivity {W/m-K}
  7688.86,                                ! Density {kg/m3}
  410,                                    ! Specific Heat {J/kg-K}
  0.9,                                    ! Thermal Absorptance
  0.2,                                    ! Solar Absorptance
  0.2;                                    ! Visible Absorptance

OS:Material,
  {01ad69e1-e995-4270-ae21-b3ebaea7ae08}, ! Handle
  1/2IN Gypsum,                           ! Name
  Smooth,                                 ! Roughness
  0.01271,                                ! Thickness {m}
  0.16,                                   ! Conductivity {W/m-K}
  784.9,                                  ! Density {kg/m3}
  830,                                    ! Specific Heat {J/kg-K}
  0.9,                                    ! Thermal Absorptance
  0.92,                                   ! Solar Absorptance
  0.92;                                   ! Visible Absorptance

OS:Construction,
  {d6d91cff-0f9e-4987-9192-9918e4150ffc}, ! Handle
  90.1-2001 Res B9 Ext Wall Metal Building, ! Name
  ,                                       ! Surface Rendering Name
  {f5277470-f001-4d2c-96f2-606ec2e88dd4}, ! Layer 1
  {9fbd7e38-12e9-4b56-93a9-798a15a54dfc}, ! Layer 2
  {01ad69e1-e995-4270-ae21-b3ebaea7ae08}; ! Layer 3

