
OS:Version,
  {4380f443-0a00-4f43-b6a8-ddb7785623d9}, ! Handle
  0.9.3;                                  ! Version Identifier

OS:Material,
  {1d67e503-e905-4182-8f23-af06c885c821}, ! Handle
  1/2IN Gypsum,                           ! Name
  Smooth,                                 ! Roughness
  0.01271,                                ! Thickness {m}
  0.16,                                   ! Conductivity {W/m-K}
  784.9,                                  ! Density {kg/m3}
  830,                                    ! Specific Heat {J/kg-K}
  0.9,                                    ! Thermal Absorptance
  0.92,                                   ! Solar Absorptance
  0.92;                                   ! Visible Absorptance

OS:Construction,
  {5dbdc7f2-26ba-4f01-b951-c95c6d4989af}, ! Handle
  AEDG-SmOffice 3A Ext Wall Mass,         ! Name
  ,                                       ! Surface Rendering Name
  {194fd46a-64d5-4cd2-ad61-a8c15f8c9bee}, ! Layer 1
  {6ecebe3a-a611-4944-9422-8f49c0955326}, ! Layer 2
  {0ec02dce-1f64-4496-bdbf-78948622441d}, ! Layer 3
  {1d67e503-e905-4182-8f23-af06c885c821}; ! Layer 4

OS:Material,
  {194fd46a-64d5-4cd2-ad61-a8c15f8c9bee}, ! Handle
  1IN Stucco,                             ! Name
  Smooth,                                 ! Roughness
  0.0253,                                 ! Thickness {m}
  0.6918,                                 ! Conductivity {W/m-K}
  1858,                                   ! Density {kg/m3}
  837,                                    ! Specific Heat {J/kg-K}
  0.9,                                    ! Thermal Absorptance
  0.92,                                   ! Solar Absorptance
  0.92;                                   ! Visible Absorptance

OS:Material,
  {6ecebe3a-a611-4944-9422-8f49c0955326}, ! Handle
  8IN Concrete HW,                        ! Name
  MediumRough,                            ! Roughness
  0.2033,                                 ! Thickness {m}
  1.7296,                                 ! Conductivity {W/m-K}
  2243,                                   ! Density {kg/m3}
  837,                                    ! Specific Heat {J/kg-K}
  0.9,                                    ! Thermal Absorptance
  0.65,                                   ! Solar Absorptance
  0.65;                                   ! Visible Absorptance

OS:Material,
  {0ec02dce-1f64-4496-bdbf-78948622441d}, ! Handle
  Wall Insulation [8],                    ! Name
  MediumRough,                            ! Roughness
  0.067929,                               ! Thickness {m}
  0.0432,                                 ! Conductivity {W/m-K}
  91,                                     ! Density {kg/m3}
  837,                                    ! Specific Heat {J/kg-K}
  0.9,                                    ! Thermal Absorptance
  0.5,                                    ! Solar Absorptance
  0.5;                                    ! Visible Absorptance

OS:ComponentCost:LineItem,
  {fe891e4d-9e05-4212-b761-ba6920dd721d}, ! Handle
  AEDG-SmOffice 3A Ext Wall Mass,         ! Name
  ,                                       ! Type
  Construction,                           ! Line Item Type
  AEDG-SmOffice 3A Ext Wall Mass,         ! Item Name
  ,                                       ! Object End Use Key
  ,                                       ! Quantity {dimensionless}
  65.826,                                 ! Material Cost {$}
  CostPerArea;                            ! Material Cost Units

