
OS:Version,
  {ad322606-d085-48cd-92e4-ad3380f1b2e0}, ! Handle
  0.9.3;                                  ! Version Identifier

OS:Construction,
  {4c77be21-292a-44d5-961a-de094c68952e}, ! Handle
  90.1-2007 Res 8A Ext Wall Metal Building, ! Name
  ,                                       ! Surface Rendering Name
  {8d299254-0b6f-48cd-a04d-9e2fdd3860d3}, ! Layer 1
  {b4561883-8a40-4637-aa90-db072adc4337}, ! Layer 2
  {aa93724e-1c0b-435b-b10a-0872518dea57}; ! Layer 3

OS:Material,
  {8d299254-0b6f-48cd-a04d-9e2fdd3860d3}, ! Handle
  Metal Siding,                           ! Name
  Smooth,                                 ! Roughness
  0.0015,                                 ! Thickness {m}
  44.96,                                  ! Conductivity {W/m-K}
  7688.86,                                ! Density {kg/m3}
  410,                                    ! Specific Heat {J/kg-K}
  0.9,                                    ! Thermal Absorptance
  0.2,                                    ! Solar Absorptance
  0.2;                                    ! Visible Absorptance

OS:Material,
  {b4561883-8a40-4637-aa90-db072adc4337}, ! Handle
  Wall Insulation [25],                   ! Name
  MediumRough,                            ! Roughness
  0.128503,                               ! Thickness {m}
  0.045,                                  ! Conductivity {W/m-K}
  265,                                    ! Density {kg/m3}
  836.8,                                  ! Specific Heat {J/kg-K}
  0.9,                                    ! Thermal Absorptance
  0.7,                                    ! Solar Absorptance
  0.7;                                    ! Visible Absorptance

OS:Material,
  {aa93724e-1c0b-435b-b10a-0872518dea57}, ! Handle
  1/2IN Gypsum,                           ! Name
  Smooth,                                 ! Roughness
  0.01271,                                ! Thickness {m}
  0.16,                                   ! Conductivity {W/m-K}
  784.9,                                  ! Density {kg/m3}
  830,                                    ! Specific Heat {J/kg-K}
  0.9,                                    ! Thermal Absorptance
  0.92,                                   ! Solar Absorptance
  0.92;                                   ! Visible Absorptance

OS:ComponentCost:LineItem,
  {df0d83cf-2e68-4040-8b53-42a4d6cd53b4}, ! Handle
  90.1-2007 Res 8A Ext Wall Metal Building, ! Name
  ,                                       ! Type
  Construction,                           ! Line Item Type
  90.1-2007 Res 8A Ext Wall Metal Building, ! Item Name
  ,                                       ! Object End Use Key
  ,                                       ! Quantity {dimensionless}
  107.681,                                ! Material Cost {$}
  CostPerArea;                            ! Material Cost Units

