
OS:Version,
  {5f638edc-5552-4277-9df2-91d840b67c54}, ! Handle
  0.9.3;                                  ! Version Identifier

OS:Construction,
  {15772d88-9c39-4d59-9d01-fe036be90c30}, ! Handle
  90.1-2007 Res 8A Ext Wall Metal Building, ! Name
  ,                                       ! Surface Rendering Name
  {be71efca-c819-4c23-b823-b05a02c52f08}, ! Layer 1
  {48c4476b-5333-420a-929d-015bb66cc10e}, ! Layer 2
  {7577eed6-9f42-41cf-89f9-920384c44367}; ! Layer 3

OS:Material,
  {be71efca-c819-4c23-b823-b05a02c52f08}, ! Handle
  Metal Siding,                           ! Name
  Smooth,                                 ! Roughness
  0.0015,                                 ! Thickness {m}
  44.96,                                  ! Conductivity {W/m-K}
  7688.86,                                ! Density {kg/m3}
  410,                                    ! Specific Heat {J/kg-K}
  0.9,                                    ! Thermal Absorptance
  0.2,                                    ! Solar Absorptance
  0.2;                                    ! Visible Absorptance

OS:Material,
  {48c4476b-5333-420a-929d-015bb66cc10e}, ! Handle
  Wall Insulation [25],                   ! Name
  MediumRough,                            ! Roughness
  0.128503,                               ! Thickness {m}
  0.045,                                  ! Conductivity {W/m-K}
  265,                                    ! Density {kg/m3}
  836.8,                                  ! Specific Heat {J/kg-K}
  0.9,                                    ! Thermal Absorptance
  0.7,                                    ! Solar Absorptance
  0.7;                                    ! Visible Absorptance

OS:Material,
  {7577eed6-9f42-41cf-89f9-920384c44367}, ! Handle
  1/2IN Gypsum,                           ! Name
  Smooth,                                 ! Roughness
  0.01271,                                ! Thickness {m}
  0.16,                                   ! Conductivity {W/m-K}
  784.9,                                  ! Density {kg/m3}
  830,                                    ! Specific Heat {J/kg-K}
  0.9,                                    ! Thermal Absorptance
  0.92,                                   ! Solar Absorptance
  0.92;                                   ! Visible Absorptance

OS:ComponentCost:LineItem,
  {7b7525b7-934c-4ad8-9baf-fcd2c153e624}, ! Handle
  90.1-2007 Res 8A Ext Wall Metal Building, ! Name
  ,                                       ! Type
  Construction,                           ! Line Item Type
  90.1-2007 Res 8A Ext Wall Metal Building, ! Item Name
  ,                                       ! Object End Use Key
  ,                                       ! Quantity {dimensionless}
  107.681,                                ! Material Cost {$}
  CostPerArea;                            ! Material Cost Units

OS:ComponentData,
  {5f3ef04e-50ea-4fcc-b1bf-53306a92179d}, ! Handle
  Component Data 1,                       ! Name
  {d66bcda2-4b99-4028-9a97-3522e758c3f3}, ! UUID
  {2e240759-6096-4a0d-99a3-afb12cf0c2f2}, ! Version UUID
  1363981877,                             ! Creation Timestamp
  1363981877,                             ! Version Timestamp
  {15772d88-9c39-4d59-9d01-fe036be90c30}, ! Name of Object 1
  {be71efca-c819-4c23-b823-b05a02c52f08}, ! Name of Object 2
  {48c4476b-5333-420a-929d-015bb66cc10e}, ! Name of Object 3
  {7577eed6-9f42-41cf-89f9-920384c44367}, ! Name of Object 4
  {7b7525b7-934c-4ad8-9baf-fcd2c153e624}; ! Name of Object 5

