
OS:Version,
  {f4cffb63-3541-44b0-97ee-023db2cdd057}, !- Handle
  1.0.6;                                  !- Version Identifier

OS:WindowMaterial:Glazing,
  {7a99c85b-2b91-4ee9-954f-44c64f4138a3}, !- Handle
  189.1-2011 NONRES 2A METAL FRAMING ALL OTHER THEORETICAL GLAZING, !- Name
  SpectralAverage,                        !- Optical Data Type
  ,                                       !- Window Glass Spectral Data Set Name
  0.002,                                  !- Thickness {m}
  0.12088,                                !- Solar Transmittance at Normal Incidence
  0.4957,                                 !- Front Side Solar Reflectance at Normal Incidence
  0.4957,                                 !- Back Side Solar Reflectance at Normal Incidence
  0.12088,                                !- Visible Transmittance at Normal Incidence
  0.4957,                                 !- Front Side Visible Reflectance at Normal Incidence
  0.4957,                                 !- Back Side Visible Reflectance at Normal Incidence
  0,                                      !- Infrared Transmittance at Normal Incidence
  0.84,                                   !- Front Side Infrared Hemispherical Emissivity
  0.84,                                   !- Back Side Infrared Hemispherical Emissivity
  0.02998,                                !- Conductivity {W/m-K}
  1,                                      !- Dirt Correction Factor for Solar and Visible Transmittance
  No;                                     !- Solar Diffusing

OS:Construction,
  {105c6797-8699-4d35-ae4a-7f1fb7e15ab4}, !- Handle
  189.1-2011 NONRES 2A METAL FRAMING ALL OTHER, !- Name
  ,                                       !- Surface Rendering Name
  {7a99c85b-2b91-4ee9-954f-44c64f4138a3}; !- Layer 1

