
OS:Version,
  {3c12e938-b362-49e9-98ca-6b1266cc351d}, ! Handle
  0.9.3;                                  ! Version Identifier

OS:Construction,
  {f7e9ec95-2d29-4995-85ed-061aa1cf72d3}, ! Handle
  AEDG SHC Nonres 1A Ext Wall Mass,       ! Name
  ,                                       ! Surface Rendering Name
  {28a4a70b-4411-4eff-b8de-a3aba606330e}, ! Layer 1
  {140cd142-f31a-4db2-8c2e-3e08425853c3}, ! Layer 2
  {16a01acd-6391-4a58-bc17-9ff8238979e7}, ! Layer 3
  {fd9add6c-2d86-4545-95e4-af5e13e32f82}; ! Layer 4

OS:Material,
  {28a4a70b-4411-4eff-b8de-a3aba606330e}, ! Handle
  1IN Stucco,                             ! Name
  Smooth,                                 ! Roughness
  0.0253,                                 ! Thickness {m}
  0.6918,                                 ! Conductivity {W/m-K}
  1858,                                   ! Density {kg/m3}
  837,                                    ! Specific Heat {J/kg-K}
  0.9,                                    ! Thermal Absorptance
  0.92,                                   ! Solar Absorptance
  0.92;                                   ! Visible Absorptance

OS:Material,
  {140cd142-f31a-4db2-8c2e-3e08425853c3}, ! Handle
  8IN Concrete HW,                        ! Name
  MediumRough,                            ! Roughness
  0.2033,                                 ! Thickness {m}
  1.7296,                                 ! Conductivity {W/m-K}
  2243,                                   ! Density {kg/m3}
  837,                                    ! Specific Heat {J/kg-K}
  0.9,                                    ! Thermal Absorptance
  0.65,                                   ! Solar Absorptance
  0.65;                                   ! Visible Absorptance

OS:Material,
  {16a01acd-6391-4a58-bc17-9ff8238979e7}, ! Handle
  Wall Insulation [58],                   ! Name
  MediumRough,                            ! Roughness
  0.033884,                               ! Thickness {m}
  0.0432,                                 ! Conductivity {W/m-K}
  91,                                     ! Density {kg/m3}
  837,                                    ! Specific Heat {J/kg-K}
  0.9,                                    ! Thermal Absorptance
  0.5,                                    ! Solar Absorptance
  0.5;                                    ! Visible Absorptance

OS:Material,
  {fd9add6c-2d86-4545-95e4-af5e13e32f82}, ! Handle
  1/2IN Gypsum,                           ! Name
  Smooth,                                 ! Roughness
  0.01271,                                ! Thickness {m}
  0.16,                                   ! Conductivity {W/m-K}
  784.9,                                  ! Density {kg/m3}
  830,                                    ! Specific Heat {J/kg-K}
  0.9,                                    ! Thermal Absorptance
  0.92,                                   ! Solar Absorptance
  0.92;                                   ! Visible Absorptance

OS:ComponentCost:LineItem,
  {4d66f8fd-9553-4cad-ab74-2f8b05a96f36}, ! Handle
  AEDG SHC Nonres 1A Ext Wall Mass,       ! Name
  ,                                       ! Type
  Construction,                           ! Line Item Type
  AEDG SHC Nonres 1A Ext Wall Mass,       ! Item Name
  ,                                       ! Object End Use Key
  ,                                       ! Quantity {dimensionless}
  0,                                      ! Material Cost {$}
  CostPerArea;                            ! Material Cost Units

OS:ComponentData,
  {879d522a-c8d1-4607-8c8c-90c1ae366772}, ! Handle
  Component Data 1,                       ! Name
  {8859caf8-c820-4f76-be90-ffb39dc0c019}, ! UUID
  {b6468c01-9828-4b01-836d-3d8a07122657}, ! Version UUID
  1363981908,                             ! Creation Timestamp
  1363981908,                             ! Version Timestamp
  {f7e9ec95-2d29-4995-85ed-061aa1cf72d3}, ! Name of Object 1
  {28a4a70b-4411-4eff-b8de-a3aba606330e}, ! Name of Object 2
  {140cd142-f31a-4db2-8c2e-3e08425853c3}, ! Name of Object 3
  {16a01acd-6391-4a58-bc17-9ff8238979e7}, ! Name of Object 4
  {fd9add6c-2d86-4545-95e4-af5e13e32f82}, ! Name of Object 5
  {4d66f8fd-9553-4cad-ab74-2f8b05a96f36}; ! Name of Object 6

