
OS:Version,
  {6fec44d3-e8f9-4c4e-a164-f278b3d706ca}, ! Handle
  0.9.3;                                  ! Version Identifier

OS:Material,
  {1ab4e482-6b49-491d-b0d2-d71a5dec76b1}, ! Handle
  Roof Insulation,                        ! Name
  MediumRough,                            ! Roughness
  0.124958,                               ! Thickness {m}
  0.049,                                  ! Conductivity {W/m-K}
  265,                                    ! Density {kg/m3}
  836.8,                                  ! Specific Heat {J/kg-K}
  0.9,                                    ! Thermal Absorptance
  0.7,                                    ! Solar Absorptance
  0.7;                                    ! Visible Absorptance

OS:Material,
  {98374ceb-78f3-4f1c-80c5-46093025d1b1}, ! Handle
  Metal Decking,                          ! Name
  MediumSmooth,                           ! Roughness
  0.001524,                               ! Thickness {m}
  45.006,                                 ! Conductivity {W/m-K}
  7680,                                   ! Density {kg/m3}
  418.4,                                  ! Specific Heat {J/kg-K}
  0.9,                                    ! Thermal Absorptance
  0.7,                                    ! Solar Absorptance
  0.3;                                    ! Visible Absorptance

OS:ComponentCost:LineItem,
  {20c3ee1c-db89-4c87-8477-98563505bea4}, ! Handle
  90.1-2004 Res 2A Roof IEAD,             ! Name
  ,                                       ! Type
  Construction,                           ! Line Item Type
  90.1-2004 Res 2A Roof IEAD,             ! Item Name
  ,                                       ! Object End Use Key
  ,                                       ! Quantity {dimensionless}
  49.208,                                 ! Material Cost {$}
  CostPerArea;                            ! Material Cost Units

OS:Material,
  {aa0782a9-5de0-4f4c-b261-97509965b07b}, ! Handle
  Roof Membrane,                          ! Name
  VeryRough,                              ! Roughness
  0.0095,                                 ! Thickness {m}
  0.16,                                   ! Conductivity {W/m-K}
  1121.29,                                ! Density {kg/m3}
  1460,                                   ! Specific Heat {J/kg-K}
  0.9,                                    ! Thermal Absorptance
  0.7,                                    ! Solar Absorptance
  0.7;                                    ! Visible Absorptance

OS:Construction,
  {df484988-5749-484f-b7d9-4b44d9e5fe4e}, ! Handle
  90.1-2004 Res 2A Roof IEAD,             ! Name
  ,                                       ! Surface Rendering Name
  {aa0782a9-5de0-4f4c-b261-97509965b07b}, ! Layer 1
  {1ab4e482-6b49-491d-b0d2-d71a5dec76b1}, ! Layer 2
  {98374ceb-78f3-4f1c-80c5-46093025d1b1}; ! Layer 3

