
OS:Version,
  {c3b67491-9105-4ff3-bcae-9f0035f28b03}, !- Handle
  1.1.0;                                  !- Version Identifier

OS:Construction,
  {a5b2013e-9819-4600-a4c6-41c856759ba8}, !- Handle
  Trp LoE Film (66) Clr 6mm/13mm Air,     !- Name
  ,                                       !- Surface Rendering Name
  {eb3410d6-230d-4a88-9d10-c2d5018e1f13}, !- Layer 1
  {61e44c03-4399-4752-92ba-358cbb73ff65}, !- Layer 2
  {5d60800a-60d8-44ca-8682-c429157fa0f5}, !- Layer 3
  {61e44c03-4399-4752-92ba-358cbb73ff65}, !- Layer 4
  {eb3410d6-230d-4a88-9d10-c2d5018e1f13}; !- Layer 5

OS:WindowMaterial:Glazing,
  {eb3410d6-230d-4a88-9d10-c2d5018e1f13}, !- Handle
  CLEAR 6MM,                              !- Name
  SpectralAverage,                        !- Optical Data Type
  ,                                       !- Window Glass Spectral Data Set Name
  0.006,                                  !- Thickness {m}
  0.775,                                  !- Solar Transmittance at Normal Incidence
  0.071,                                  !- Front Side Solar Reflectance at Normal Incidence
  0.071,                                  !- Back Side Solar Reflectance at Normal Incidence
  0.881,                                  !- Visible Transmittance at Normal Incidence
  0.08,                                   !- Front Side Visible Reflectance at Normal Incidence
  0.08,                                   !- Back Side Visible Reflectance at Normal Incidence
  0,                                      !- Infrared Transmittance at Normal Incidence
  0.84,                                   !- Front Side Infrared Hemispherical Emissivity
  0.84,                                   !- Back Side Infrared Hemispherical Emissivity
  0.9;                                    !- Conductivity {W/m-K}

OS:WindowMaterial:Gas,
  {61e44c03-4399-4752-92ba-358cbb73ff65}, !- Handle
  AIR 13MM,                               !- Name
  Air,                                    !- Gas Type
  0.0127;                                 !- Thickness {m}

OS:WindowMaterial:Glazing,
  {5d60800a-60d8-44ca-8682-c429157fa0f5}, !- Handle
  COATED POLY-66,                         !- Name
  SpectralAverage,                        !- Optical Data Type
  ,                                       !- Window Glass Spectral Data Set Name
  0.00051,                                !- Thickness {m}
  0.403,                                  !- Solar Transmittance at Normal Incidence
  0.514,                                  !- Front Side Solar Reflectance at Normal Incidence
  0.515,                                  !- Back Side Solar Reflectance at Normal Incidence
  0.658,                                  !- Visible Transmittance at Normal Incidence
  0.256,                                  !- Front Side Visible Reflectance at Normal Incidence
  0.279,                                  !- Back Side Visible Reflectance at Normal Incidence
  0,                                      !- Infrared Transmittance at Normal Incidence
  0.057,                                  !- Front Side Infrared Hemispherical Emissivity
  0.72,                                   !- Back Side Infrared Hemispherical Emissivity
  0.14;                                   !- Conductivity {W/m-K}

