
OS:Version,
  {8f1d1550-0bde-4267-986f-40ce1a27431e}, ! Handle
  0.9.3;                                  ! Version Identifier

OS:Material,
  {b219fdbc-8848-48d0-a2dd-a1bc092f0acd}, ! Handle
  1/2IN Gypsum,                           ! Name
  Smooth,                                 ! Roughness
  0.01271,                                ! Thickness {m}
  0.16,                                   ! Conductivity {W/m-K}
  784.9,                                  ! Density {kg/m3}
  830,                                    ! Specific Heat {J/kg-K}
  0.9,                                    ! Thermal Absorptance
  0.92,                                   ! Solar Absorptance
  0.92;                                   ! Visible Absorptance

OS:Construction,
  {b6bebba2-345d-486a-a4f1-b086a57a2aa6}, ! Handle
  189.1-2009 Res 6B Ext Wall Mass,        ! Name
  ,                                       ! Surface Rendering Name
  {f8b9e5f9-c8a0-42b7-9cb8-e1cd6f893036}, ! Layer 1
  {8036b310-f8b8-433d-8b79-7d89655f1d77}, ! Layer 2
  {94a8d358-4633-48e2-8d01-3e867e9ee178}, ! Layer 3
  {b219fdbc-8848-48d0-a2dd-a1bc092f0acd}; ! Layer 4

OS:Material,
  {f8b9e5f9-c8a0-42b7-9cb8-e1cd6f893036}, ! Handle
  1IN Stucco,                             ! Name
  Smooth,                                 ! Roughness
  0.0253,                                 ! Thickness {m}
  0.6918,                                 ! Conductivity {W/m-K}
  1858,                                   ! Density {kg/m3}
  837,                                    ! Specific Heat {J/kg-K}
  0.9,                                    ! Thermal Absorptance
  0.92,                                   ! Solar Absorptance
  0.92;                                   ! Visible Absorptance

OS:Material,
  {8036b310-f8b8-433d-8b79-7d89655f1d77}, ! Handle
  8IN Concrete HW,                        ! Name
  MediumRough,                            ! Roughness
  0.2033,                                 ! Thickness {m}
  1.7296,                                 ! Conductivity {W/m-K}
  2243,                                   ! Density {kg/m3}
  837,                                    ! Specific Heat {J/kg-K}
  0.9,                                    ! Thermal Absorptance
  0.65,                                   ! Solar Absorptance
  0.65;                                   ! Visible Absorptance

OS:Material,
  {94a8d358-4633-48e2-8d01-3e867e9ee178}, ! Handle
  Wall Insulation [44],                   ! Name
  MediumRough,                            ! Roughness
  0.110439,                               ! Thickness {m}
  0.0432,                                 ! Conductivity {W/m-K}
  91,                                     ! Density {kg/m3}
  837,                                    ! Specific Heat {J/kg-K}
  0.9,                                    ! Thermal Absorptance
  0.5,                                    ! Solar Absorptance
  0.5;                                    ! Visible Absorptance

OS:ComponentCost:LineItem,
  {443a391d-3d4c-4111-97d4-cc1842d35a4f}, ! Handle
  189.1-2009 Res 6B Ext Wall Mass,        ! Name
  ,                                       ! Type
  Construction,                           ! Line Item Type
  189.1-2009 Res 6B Ext Wall Mass,        ! Item Name
  ,                                       ! Object End Use Key
  ,                                       ! Quantity {dimensionless}
  75.386,                                 ! Material Cost {$}
  CostPerArea;                            ! Material Cost Units

