
OS:Version,
  {3ac6b544-13e8-46b9-8db3-a8d357d72a05}, ! Handle
  0.9.3;                                  ! Version Identifier

OS:ComponentCost:LineItem,
  {18d26c75-7064-4eb2-9945-d5aee62aaaf3}, ! Handle
  90.1-2004 Res 8A Roof Metal Building,   ! Name
  ,                                       ! Type
  Construction,                           ! Line Item Type
  90.1-2004 Res 8A Roof Metal Building,   ! Item Name
  ,                                       ! Object End Use Key
  ,                                       ! Quantity {dimensionless}
  42.184,                                 ! Material Cost {$}
  CostPerArea;                            ! Material Cost Units

OS:Material,
  {4da18c25-42dc-4093-bac8-be548aa874ba}, ! Handle
  Roof Insulation [8],                    ! Name
  MediumRough,                            ! Roughness
  0.166908,                               ! Thickness {m}
  0.049,                                  ! Conductivity {W/m-K}
  265,                                    ! Density {kg/m3}
  836.8,                                  ! Specific Heat {J/kg-K}
  0.9,                                    ! Thermal Absorptance
  0.7,                                    ! Solar Absorptance
  0.7;                                    ! Visible Absorptance

OS:Material,
  {d2b57c28-b9ce-48b2-a8fd-3a80f267d323}, ! Handle
  Metal Roofing,                          ! Name
  MediumSmooth,                           ! Roughness
  0.001524,                               ! Thickness {m}
  45.006,                                 ! Conductivity {W/m-K}
  7680,                                   ! Density {kg/m3}
  418.4,                                  ! Specific Heat {J/kg-K}
  0.9,                                    ! Thermal Absorptance
  0.7,                                    ! Solar Absorptance
  0.3;                                    ! Visible Absorptance

OS:Construction,
  {6d32b010-a36a-46b3-af77-345daeed9136}, ! Handle
  90.1-2004 Res 8A Roof Metal Building,   ! Name
  ,                                       ! Surface Rendering Name
  {d2b57c28-b9ce-48b2-a8fd-3a80f267d323}, ! Layer 1
  {4da18c25-42dc-4093-bac8-be548aa874ba}; ! Layer 2

