
OS:Version,
  {3ddd87ec-d56d-41a7-8237-218000b47a6e}, ! Handle
  0.9.3;                                  ! Version Identifier

OS:Material,
  {870d8f3f-2f6a-4df9-92f7-252c4a76cc9f}, ! Handle
  Wall Insulation,                        ! Name
  MediumRough,                            ! Roughness
  0.0598725,                              ! Thickness {m}
  0.045,                                  ! Conductivity {W/m-K}
  265,                                    ! Density {kg/m3}
  836.8,                                  ! Specific Heat {J/kg-K}
  0.9,                                    ! Thermal Absorptance
  0.7,                                    ! Solar Absorptance
  0.7;                                    ! Visible Absorptance

OS:ComponentCost:LineItem,
  {3d747eae-03b9-444f-886c-087dfb518795}, ! Handle
  90.1-1999 Nonres B15 Ext Wall Metal Building, ! Name
  ,                                       ! Type
  Construction,                           ! Line Item Type
  90.1-1999 Nonres B15 Ext Wall Metal Building, ! Item Name
  ,                                       ! Object End Use Key
  ,                                       ! Quantity {dimensionless}
  98.78,                                  ! Material Cost {$}
  CostPerArea;                            ! Material Cost Units

OS:Material,
  {a7643ebb-e231-46d8-97bd-af2eee5ba1e5}, ! Handle
  Metal Siding,                           ! Name
  Smooth,                                 ! Roughness
  0.0015,                                 ! Thickness {m}
  44.96,                                  ! Conductivity {W/m-K}
  7688.86,                                ! Density {kg/m3}
  410,                                    ! Specific Heat {J/kg-K}
  0.9,                                    ! Thermal Absorptance
  0.2,                                    ! Solar Absorptance
  0.2;                                    ! Visible Absorptance

OS:Construction,
  {e0c536cc-988f-4760-8433-4cc6d3461e4b}, ! Handle
  90.1-1999 Nonres B15 Ext Wall Metal Building, ! Name
  ,                                       ! Surface Rendering Name
  {a7643ebb-e231-46d8-97bd-af2eee5ba1e5}, ! Layer 1
  {870d8f3f-2f6a-4df9-92f7-252c4a76cc9f}, ! Layer 2
  {28deb45c-93eb-4e0b-97b0-deef01867d72}; ! Layer 3

OS:Material,
  {28deb45c-93eb-4e0b-97b0-deef01867d72}, ! Handle
  1/2IN Gypsum,                           ! Name
  Smooth,                                 ! Roughness
  0.01271,                                ! Thickness {m}
  0.16,                                   ! Conductivity {W/m-K}
  784.9,                                  ! Density {kg/m3}
  830,                                    ! Specific Heat {J/kg-K}
  0.9,                                    ! Thermal Absorptance
  0.92,                                   ! Solar Absorptance
  0.92;                                   ! Visible Absorptance

