
OS:Version,
  {a0375075-7219-43dd-bab0-72e95014c6d9}, ! Handle
  0.9.3;                                  ! Version Identifier

OS:Material,
  {b4a412fa-a06b-446d-bf37-0a9551aac058}, ! Handle
  MAT-CC05 4 HW CONCRETE,                 ! Name
  Rough,                                  ! Roughness
  0.1016,                                 ! Thickness {m}
  1.311,                                  ! Conductivity {W/m-K}
  2240,                                   ! Density {kg/m3}
  836.8,                                  ! Specific Heat {J/kg-K}
  0.9,                                    ! Thermal Absorptance
  0.7,                                    ! Solar Absorptance
  0.7;                                    ! Visible Absorptance

OS:Construction,
  {3c94b72e-79e4-4e3e-b7e5-a4227f664884}, ! Handle
  90.1-2004 Nonres 3A Ext Slab Unheated - 4in Slab without Carpet, ! Name
  ,                                       ! Surface Rendering Name
  {b4a412fa-a06b-446d-bf37-0a9551aac058}; ! Layer 1

OS:ComponentCost:LineItem,
  {7b350f85-9001-493a-bed3-997082db332c}, ! Handle
  90.1-2004 Nonres 3A Ext Slab Unheated - 4in Slab without Carpet, ! Name
  ,                                       ! Type
  Construction,                           ! Line Item Type
  90.1-2004 Nonres 3A Ext Slab Unheated - 4in Slab without Carpet, ! Item Name
  ,                                       ! Object End Use Key
  ,                                       ! Quantity {dimensionless}
  45.52,                                  ! Material Cost {$}
  CostPerArea;                            ! Material Cost Units

