
OS:Version,
  {a557ba2d-d2fe-43ef-98b4-81e5518e45f8}, ! Handle
  0.9.3;                                  ! Version Identifier

OS:Construction,
  {e459b1da-d0aa-489b-bfba-4d7471aa349a}, ! Handle
  90.1-2004 Nonres 3A Ext Slab Unheated - 4in Slab without Carpet, ! Name
  ,                                       ! Surface Rendering Name
  {81cdf2e0-490f-4b2d-8538-66a7831fc6ef}; ! Layer 1

OS:Material,
  {81cdf2e0-490f-4b2d-8538-66a7831fc6ef}, ! Handle
  MAT-CC05 4 HW CONCRETE,                 ! Name
  Rough,                                  ! Roughness
  0.1016,                                 ! Thickness {m}
  1.311,                                  ! Conductivity {W/m-K}
  2240,                                   ! Density {kg/m3}
  836.8,                                  ! Specific Heat {J/kg-K}
  0.9,                                    ! Thermal Absorptance
  0.7,                                    ! Solar Absorptance
  0.7;                                    ! Visible Absorptance

OS:ComponentCost:LineItem,
  {4d02efae-9f12-446e-b6aa-4f9cdd0b0587}, ! Handle
  90.1-2004 Nonres 3A Ext Slab Unheated - 4in Slab without Carpet, ! Name
  ,                                       ! Type
  Construction,                           ! Line Item Type
  90.1-2004 Nonres 3A Ext Slab Unheated - 4in Slab without Carpet, ! Item Name
  ,                                       ! Object End Use Key
  ,                                       ! Quantity {dimensionless}
  45.52,                                  ! Material Cost {$}
  CostPerArea;                            ! Material Cost Units

OS:ComponentData,
  {1aaa745f-2faa-4b0d-bfbb-8cb6bc2db228}, ! Handle
  Component Data 1,                       ! Name
  {ced1a510-0e9e-463c-9562-aeba4e64afaf}, ! UUID
  {02b3629d-599f-4a1b-9c54-b70ecf45eb32}, ! Version UUID
  1363981648,                             ! Creation Timestamp
  1363981648,                             ! Version Timestamp
  {e459b1da-d0aa-489b-bfba-4d7471aa349a}, ! Name of Object 1
  {81cdf2e0-490f-4b2d-8538-66a7831fc6ef}, ! Name of Object 2
  {4d02efae-9f12-446e-b6aa-4f9cdd0b0587}; ! Name of Object 3

