
OS:Version,
  {93e7a7fe-345c-4a73-be42-467baf3b35e1}, ! Handle
  0.9.3;                                  ! Version Identifier

OS:ComponentCost:LineItem,
  {46f8ca2d-c066-4ae9-8b09-67b489184ac6}, ! Handle
  189.1-2009 Res 1A Ext Wall Metal Building, ! Name
  ,                                       ! Type
  Construction,                           ! Line Item Type
  189.1-2009 Res 1A Ext Wall Metal Building, ! Item Name
  ,                                       ! Object End Use Key
  ,                                       ! Quantity {dimensionless}
  101.679,                                ! Material Cost {$}
  CostPerArea;                            ! Material Cost Units

OS:Construction,
  {def3e034-d9c8-49fd-a3b6-a9ca15c71f53}, ! Handle
  189.1-2009 Res 1A Ext Wall Metal Building, ! Name
  ,                                       ! Surface Rendering Name
  {de782167-fe20-4280-a6bf-f6ea27c45c0b}, ! Layer 1
  {145595b3-c007-4e1d-9122-ae88c75e8bbe}, ! Layer 2
  {7f815f32-e79d-4c91-a3f7-49dbeeddc372}; ! Layer 3

OS:Material,
  {de782167-fe20-4280-a6bf-f6ea27c45c0b}, ! Handle
  Metal Siding,                           ! Name
  Smooth,                                 ! Roughness
  0.0015,                                 ! Thickness {m}
  44.96,                                  ! Conductivity {W/m-K}
  7688.86,                                ! Density {kg/m3}
  410,                                    ! Specific Heat {J/kg-K}
  0.9,                                    ! Thermal Absorptance
  0.2,                                    ! Solar Absorptance
  0.2;                                    ! Visible Absorptance

OS:Material,
  {145595b3-c007-4e1d-9122-ae88c75e8bbe}, ! Handle
  Wall Insulation [32],                   ! Name
  MediumRough,                            ! Roughness
  0.0896793,                              ! Thickness {m}
  0.045,                                  ! Conductivity {W/m-K}
  265,                                    ! Density {kg/m3}
  836.8,                                  ! Specific Heat {J/kg-K}
  0.9,                                    ! Thermal Absorptance
  0.7,                                    ! Solar Absorptance
  0.7;                                    ! Visible Absorptance

OS:Material,
  {7f815f32-e79d-4c91-a3f7-49dbeeddc372}, ! Handle
  1/2IN Gypsum,                           ! Name
  Smooth,                                 ! Roughness
  0.01271,                                ! Thickness {m}
  0.16,                                   ! Conductivity {W/m-K}
  784.9,                                  ! Density {kg/m3}
  830,                                    ! Specific Heat {J/kg-K}
  0.9,                                    ! Thermal Absorptance
  0.92,                                   ! Solar Absorptance
  0.92;                                   ! Visible Absorptance

