
OS:Version,
  {c19c092e-eea0-4102-9b60-9aac3af37a6c}, ! Handle
  0.9.3;                                  ! Version Identifier

OS:Construction,
  {56163828-b173-4e17-9528-3266ff096f60}, ! Handle
  90.1-2001 Res B11 Ext Slab Unheated - 4in Slab without Carpet, ! Name
  ,                                       ! Surface Rendering Name
  {9abea5eb-b039-4c89-a7c6-1c81ace651bc}; ! Layer 1

OS:Material,
  {9abea5eb-b039-4c89-a7c6-1c81ace651bc}, ! Handle
  MAT-CC05 4 HW CONCRETE,                 ! Name
  Rough,                                  ! Roughness
  0.1016,                                 ! Thickness {m}
  1.311,                                  ! Conductivity {W/m-K}
  2240,                                   ! Density {kg/m3}
  836.8,                                  ! Specific Heat {J/kg-K}
  0.9,                                    ! Thermal Absorptance
  0.7,                                    ! Solar Absorptance
  0.7;                                    ! Visible Absorptance

OS:ComponentCost:LineItem,
  {23fff0f3-2a35-4795-a7b5-0297c603b202}, ! Handle
  90.1-2001 Res B11 Ext Slab Unheated - 4in Slab without Carpet, ! Name
  ,                                       ! Type
  Construction,                           ! Line Item Type
  90.1-2001 Res B11 Ext Slab Unheated - 4in Slab without Carpet, ! Item Name
  ,                                       ! Object End Use Key
  ,                                       ! Quantity {dimensionless}
  45.52,                                  ! Material Cost {$}
  CostPerArea;                            ! Material Cost Units

