
OS:Version,
  {e09ae243-2b09-4b87-a672-28fcb35c0c97}, ! Handle
  0.9.3;                                  ! Version Identifier

OS:Material,
  {fb88f4ca-f01e-460b-bf9d-9b217fea0ca3}, ! Handle
  MAT-CC05 4 HW CONCRETE,                 ! Name
  Rough,                                  ! Roughness
  0.1016,                                 ! Thickness {m}
  1.311,                                  ! Conductivity {W/m-K}
  2240,                                   ! Density {kg/m3}
  836.8,                                  ! Specific Heat {J/kg-K}
  0.9,                                    ! Thermal Absorptance
  0.7,                                    ! Solar Absorptance
  0.7;                                    ! Visible Absorptance

OS:Construction,
  {37231fe2-04aa-4184-b3b0-862148b2ecdb}, ! Handle
  90.1-2004 Nonres 1A Ext Slab Unheated - 4in Slab without Carpet, ! Name
  ,                                       ! Surface Rendering Name
  {fb88f4ca-f01e-460b-bf9d-9b217fea0ca3}; ! Layer 1

OS:ComponentCost:LineItem,
  {ae66792f-7a16-4319-97e1-378a10232f8d}, ! Handle
  90.1-2004 Nonres 1A Ext Slab Unheated - 4in Slab without Carpet, ! Name
  ,                                       ! Type
  Construction,                           ! Line Item Type
  90.1-2004 Nonres 1A Ext Slab Unheated - 4in Slab without Carpet, ! Item Name
  ,                                       ! Object End Use Key
  ,                                       ! Quantity {dimensionless}
  45.52,                                  ! Material Cost {$}
  CostPerArea;                            ! Material Cost Units

