
OS:Version,
  {71570dc4-8f5e-4322-8e04-222a32264462}, !- Handle
  1.1.0;                                  !- Version Identifier

OS:Construction,
  {37dbd050-c3cb-46fd-a919-0f5b3613a6a5}, !- Handle
  Sgl Elec Ref Bleached 6mm,              !- Name
  ,                                       !- Surface Rendering Name
  {7528990c-e2bf-49ba-a3f9-edc37bdd66af}; !- Layer 1

OS:WindowMaterial:Glazing,
  {7528990c-e2bf-49ba-a3f9-edc37bdd66af}, !- Handle
  ECREF-1 BLEACHED 6MM,                   !- Name
  SpectralAverage,                        !- Optical Data Type
  ,                                       !- Window Glass Spectral Data Set Name
  0.006,                                  !- Thickness {m}
  0.694,                                  !- Solar Transmittance at Normal Incidence
  0.168,                                  !- Front Side Solar Reflectance at Normal Incidence
  0.168,                                  !- Back Side Solar Reflectance at Normal Incidence
  0.818,                                  !- Visible Transmittance at Normal Incidence
  0.11,                                   !- Front Side Visible Reflectance at Normal Incidence
  0.11,                                   !- Back Side Visible Reflectance at Normal Incidence
  0,                                      !- Infrared Transmittance at Normal Incidence
  0.84,                                   !- Front Side Infrared Hemispherical Emissivity
  0.84,                                   !- Back Side Infrared Hemispherical Emissivity
  0.9;                                    !- Conductivity {W/m-K}

