
OS:Version,
  {22e3469e-cf9f-4381-b26c-2d509c9a75ab}, ! Handle
  0.9.3;                                  ! Version Identifier

OS:Material,
  {b691f64a-91d4-41d6-a6d5-c2df0efc64ac}, ! Handle
  Roof Insulation [1],                    ! Name
  MediumRough,                            ! Roughness
  0.123533,                               ! Thickness {m}
  0.049,                                  ! Conductivity {W/m-K}
  265,                                    ! Density {kg/m3}
  836.8,                                  ! Specific Heat {J/kg-K}
  0.9,                                    ! Thermal Absorptance
  0.7,                                    ! Solar Absorptance
  0.7;                                    ! Visible Absorptance

OS:ComponentCost:LineItem,
  {660e8443-9c75-49d2-954d-a8f69562922d}, ! Handle
  90.1-2004 Res 2A Roof Metal Building,   ! Name
  ,                                       ! Type
  Construction,                           ! Line Item Type
  90.1-2004 Res 2A Roof Metal Building,   ! Item Name
  ,                                       ! Object End Use Key
  ,                                       ! Quantity {dimensionless}
  38.206,                                 ! Material Cost {$}
  CostPerArea;                            ! Material Cost Units

OS:Construction,
  {be056a82-3ed1-47d6-b11e-3277ab1edffa}, ! Handle
  90.1-2004 Res 2A Roof Metal Building,   ! Name
  ,                                       ! Surface Rendering Name
  {181a700d-bcd7-4fc0-b569-31a6b268438e}, ! Layer 1
  {b691f64a-91d4-41d6-a6d5-c2df0efc64ac}; ! Layer 2

OS:Material,
  {181a700d-bcd7-4fc0-b569-31a6b268438e}, ! Handle
  Metal Roofing,                          ! Name
  MediumSmooth,                           ! Roughness
  0.001524,                               ! Thickness {m}
  45.006,                                 ! Conductivity {W/m-K}
  7680,                                   ! Density {kg/m3}
  418.4,                                  ! Specific Heat {J/kg-K}
  0.9,                                    ! Thermal Absorptance
  0.7,                                    ! Solar Absorptance
  0.3;                                    ! Visible Absorptance

