
OS:Version,
  {dc3ceed7-6719-447e-bef7-441d1ced0bc4}, ! Handle
  0.9.3;                                  ! Version Identifier

OS:WindowMaterial:Glazing,
  {6ec0a184-3cf5-41f8-ac67-82cfeba54cb0}, ! Handle
  Theoretical Glass [12],                 ! Name
  SpectralAverage,                        ! Optical Data Type
  ,                                       ! Window Glass Spectral Data Set Name
  0.003,                                  ! Thickness {m}
  0.595954,                               ! Solar Transmittance at Normal Incidence
  0.354046,                               ! Front Side Solar Reflectance at Normal Incidence
  0.354046,                               ! Back Side Solar Reflectance at Normal Incidence
  0.671296,                               ! Visible Transmittance at Normal Incidence
  0.278704,                               ! Front Side Visible Reflectance at Normal Incidence
  0.278704,                               ! Back Side Visible Reflectance at Normal Incidence
  0,                                      ! Infrared Transmittance at Normal Incidence
  0.999,                                  ! Front Side Infrared Hemispherical Emissivity
  0.999,                                  ! Back Side Infrared Hemispherical Emissivity
  299.383;                                ! Conductivity {W/m-K}

OS:Construction,
  {caf21c1a-75e5-45b9-b696-cb765254d76f}, ! Handle
  90.1-2001 Nonres B7 Skylight without Curb, ! Name
  ,                                       ! Surface Rendering Name
  {6ec0a184-3cf5-41f8-ac67-82cfeba54cb0}; ! Layer 1

OS:ComponentCost:LineItem,
  {497ad76c-eb9e-406a-9651-136f5dc5709f}, ! Handle
  90.1-2001 Nonres B7 Skylight without Curb, ! Name
  ,                                       ! Type
  Construction,                           ! Line Item Type
  90.1-2001 Nonres B7 Skylight without Curb, ! Item Name
  ,                                       ! Object End Use Key
  ,                                       ! Quantity {dimensionless}
  459.189,                                ! Material Cost {$}
  CostPerArea;                            ! Material Cost Units

