
OS:Version,
  {f254036a-3d1c-47d3-a05e-42bedfbdc412}, ! Handle
  0.9.3;                                  ! Version Identifier

OS:WindowMaterial:Glazing,
  {5f8f2acc-637d-4e69-b265-2963c20d3512}, ! Handle
  Theoretical Glass [400],                ! Name
  SpectralAverage,                        ! Optical Data Type
  ,                                       ! Window Glass Spectral Data Set Name
  0.003,                                  ! Thickness {m}
  0.355367,                               ! Solar Transmittance at Normal Incidence
  0.594633,                               ! Front Side Solar Reflectance at Normal Incidence
  0.594633,                               ! Back Side Solar Reflectance at Normal Incidence
  0.529698,                               ! Visible Transmittance at Normal Incidence
  0.420302,                               ! Front Side Visible Reflectance at Normal Incidence
  0.420302,                               ! Back Side Visible Reflectance at Normal Incidence
  0,                                      ! Infrared Transmittance at Normal Incidence
  0.9,                                    ! Front Side Infrared Hemispherical Emissivity
  0.9,                                    ! Back Side Infrared Hemispherical Emissivity
  0.00956703;                             ! Conductivity {W/m-K}

OS:ComponentCost:LineItem,
  {2c6db15f-a89d-41dd-92cb-a103cb84456d}, ! Handle
  90.1 Windows Window Fixed 2532 Vnl-Grn-Std-ClrSpe, ! Name
  ,                                       ! Type
  Construction,                           ! Line Item Type
  90.1 Windows Window Fixed 2532 Vnl-Grn-Std-ClrSpe, ! Item Name
  ,                                       ! Object End Use Key
  ,                                       ! Quantity {dimensionless}
  0,                                      ! Material Cost {$}
  CostPerArea;                            ! Material Cost Units

OS:Construction,
  {0bb036cf-5b21-45f0-993c-f337cac6f625}, ! Handle
  90.1 Windows Window Fixed 2532 Vnl-Grn-Std-ClrSpe, ! Name
  ,                                       ! Surface Rendering Name
  {5f8f2acc-637d-4e69-b265-2963c20d3512}; ! Layer 1

