
OS:Version,
  {32a1d9e0-6360-4941-b440-46ca440184ee}, ! Handle
  0.9.3;                                  ! Version Identifier

OS:Construction,
  {4934d530-2586-49c3-85ef-5bf17fb28d25}, ! Handle
  90.1 Windows Window Fixed 2532 Vnl-Grn-Std-ClrSpe, ! Name
  ,                                       ! Surface Rendering Name
  {321777da-a9f8-407a-a39f-0c10eb97ebbf}; ! Layer 1

OS:WindowMaterial:Glazing,
  {321777da-a9f8-407a-a39f-0c10eb97ebbf}, ! Handle
  Theoretical Glass [400],                ! Name
  SpectralAverage,                        ! Optical Data Type
  ,                                       ! Window Glass Spectral Data Set Name
  0.003,                                  ! Thickness {m}
  0.355367,                               ! Solar Transmittance at Normal Incidence
  0.594633,                               ! Front Side Solar Reflectance at Normal Incidence
  0.594633,                               ! Back Side Solar Reflectance at Normal Incidence
  0.529698,                               ! Visible Transmittance at Normal Incidence
  0.420302,                               ! Front Side Visible Reflectance at Normal Incidence
  0.420302,                               ! Back Side Visible Reflectance at Normal Incidence
  0,                                      ! Infrared Transmittance at Normal Incidence
  0.9,                                    ! Front Side Infrared Hemispherical Emissivity
  0.9,                                    ! Back Side Infrared Hemispherical Emissivity
  0.00956703;                             ! Conductivity {W/m-K}

OS:ComponentCost:LineItem,
  {cbed18a8-8fc3-49aa-96f7-6115bb12b672}, ! Handle
  90.1 Windows Window Fixed 2532 Vnl-Grn-Std-ClrSpe, ! Name
  ,                                       ! Type
  Construction,                           ! Line Item Type
  90.1 Windows Window Fixed 2532 Vnl-Grn-Std-ClrSpe, ! Item Name
  ,                                       ! Object End Use Key
  ,                                       ! Quantity {dimensionless}
  0,                                      ! Material Cost {$}
  CostPerArea;                            ! Material Cost Units

OS:ComponentData,
  {4bc32859-6123-4939-96f6-8ee8445b17a1}, ! Handle
  Component Data 1,                       ! Name
  {90a1a084-2992-4f3c-93dd-5f9792d79967}, ! UUID
  {095606ed-b811-462a-8672-a1e9d36309ff}, ! Version UUID
  1363981014,                             ! Creation Timestamp
  1363981014,                             ! Version Timestamp
  {4934d530-2586-49c3-85ef-5bf17fb28d25}, ! Name of Object 1
  {321777da-a9f8-407a-a39f-0c10eb97ebbf}, ! Name of Object 2
  {cbed18a8-8fc3-49aa-96f7-6115bb12b672}; ! Name of Object 3

