
OS:Version,
  {678d961e-8892-4f51-8cc2-400431904f8d}, ! Handle
  0.9.3;                                  ! Version Identifier

OS:Construction,
  {bb388ef1-bc41-45fd-90b8-5dbac1c80701}, ! Handle
  90.1-2001 Res B2 Roof IEAD,             ! Name
  ,                                       ! Surface Rendering Name
  {cbabcbc5-3a14-4fd9-9095-78d69c10021c}, ! Layer 1
  {fcafc4af-c1dc-48c8-a3f4-cf6ad965dcd3}, ! Layer 2
  {7c061cbf-dfa8-4848-90a6-b4bbb290dc26}; ! Layer 3

OS:Material,
  {cbabcbc5-3a14-4fd9-9095-78d69c10021c}, ! Handle
  Roof Membrane,                          ! Name
  VeryRough,                              ! Roughness
  0.0095,                                 ! Thickness {m}
  0.16,                                   ! Conductivity {W/m-K}
  1121.29,                                ! Density {kg/m3}
  1460,                                   ! Specific Heat {J/kg-K}
  0.9,                                    ! Thermal Absorptance
  0.7,                                    ! Solar Absorptance
  0.7;                                    ! Visible Absorptance

OS:Material,
  {fcafc4af-c1dc-48c8-a3f4-cf6ad965dcd3}, ! Handle
  Roof Insulation,                        ! Name
  MediumRough,                            ! Roughness
  0.124958,                               ! Thickness {m}
  0.049,                                  ! Conductivity {W/m-K}
  265,                                    ! Density {kg/m3}
  836.8,                                  ! Specific Heat {J/kg-K}
  0.9,                                    ! Thermal Absorptance
  0.7,                                    ! Solar Absorptance
  0.7;                                    ! Visible Absorptance

OS:Material,
  {7c061cbf-dfa8-4848-90a6-b4bbb290dc26}, ! Handle
  Metal Decking,                          ! Name
  MediumSmooth,                           ! Roughness
  0.001524,                               ! Thickness {m}
  45.006,                                 ! Conductivity {W/m-K}
  7680,                                   ! Density {kg/m3}
  418.4,                                  ! Specific Heat {J/kg-K}
  0.9,                                    ! Thermal Absorptance
  0.7,                                    ! Solar Absorptance
  0.3;                                    ! Visible Absorptance

OS:ComponentCost:LineItem,
  {042edef6-ce5f-4a7d-81cc-ff1fb17b7ee0}, ! Handle
  90.1-2001 Res B2 Roof IEAD,             ! Name
  ,                                       ! Type
  Construction,                           ! Line Item Type
  90.1-2001 Res B2 Roof IEAD,             ! Item Name
  ,                                       ! Object End Use Key
  ,                                       ! Quantity {dimensionless}
  49.208,                                 ! Material Cost {$}
  CostPerArea;                            ! Material Cost Units

OS:ComponentData,
  {6940a870-b7c6-4729-85e6-c305fc8c116b}, ! Handle
  Component Data 1,                       ! Name
  {3cbbda82-3111-44a6-aec7-ce4d057238d2}, ! UUID
  {78ed2293-0cfd-4bb5-8351-5e6c4f36f456}, ! Version UUID
  1363981451,                             ! Creation Timestamp
  1363981451,                             ! Version Timestamp
  {bb388ef1-bc41-45fd-90b8-5dbac1c80701}, ! Name of Object 1
  {cbabcbc5-3a14-4fd9-9095-78d69c10021c}, ! Name of Object 2
  {fcafc4af-c1dc-48c8-a3f4-cf6ad965dcd3}, ! Name of Object 3
  {7c061cbf-dfa8-4848-90a6-b4bbb290dc26}, ! Name of Object 4
  {042edef6-ce5f-4a7d-81cc-ff1fb17b7ee0}; ! Name of Object 5

