
OS:Version,
  {886e4295-f02a-46f3-acc9-2cdb2fdd1886}, ! Handle
  0.9.3;                                  ! Version Identifier

OS:ComponentCost:LineItem,
  {3b290829-9d3b-47bf-b5f5-756cd03c4326}, ! Handle
  Title 24-2008 Nonres 16 Skylight without Curb, ! Name
  ,                                       ! Type
  Construction,                           ! Line Item Type
  Title 24-2008 Nonres 16 Skylight without Curb, ! Item Name
  ,                                       ! Object End Use Key
  ,                                       ! Quantity {dimensionless}
  529.667,                                ! Material Cost {$}
  CostPerArea;                            ! Material Cost Units

OS:Construction,
  {b1ffb283-cdaa-498b-b525-c0e06b48fe54}, ! Handle
  Title 24-2008 Nonres 16 Skylight without Curb, ! Name
  ,                                       ! Surface Rendering Name
  {eeb1666f-cf4b-493f-b982-7163e4fc8b61}; ! Layer 1

OS:WindowMaterial:Glazing,
  {eeb1666f-cf4b-493f-b982-7163e4fc8b61}, ! Handle
  Theoretical Glass [667],                ! Name
  SpectralAverage,                        ! Optical Data Type
  ,                                       ! Window Glass Spectral Data Set Name
  0.003,                                  ! Thickness {m}
  0.351757,                               ! Solar Transmittance at Normal Incidence
  0.598243,                               ! Front Side Solar Reflectance at Normal Incidence
  0.598243,                               ! Back Side Solar Reflectance at Normal Incidence
  0.360158,                               ! Visible Transmittance at Normal Incidence
  0.589842,                               ! Front Side Visible Reflectance at Normal Incidence
  0.589842,                               ! Back Side Visible Reflectance at Normal Incidence
  0,                                      ! Infrared Transmittance at Normal Incidence
  0.84,                                   ! Front Side Infrared Hemispherical Emissivity
  0.84,                                   ! Back Side Infrared Hemispherical Emissivity
  0.0305466;                              ! Conductivity {W/m-K}

