
OS:Version,
  {d0ae9d4d-08a2-400f-b762-f1aef290a01b}, ! Handle
  0.9.3;                                  ! Version Identifier

OS:ComponentCost:LineItem,
  {f1f5bc84-5c9f-417b-86d2-4104f41caa8b}, ! Handle
  90.1-2004 Nonres 8A Exposed Floor Mass, ! Name
  ,                                       ! Type
  Construction,                           ! Line Item Type
  90.1-2004 Nonres 8A Exposed Floor Mass, ! Item Name
  ,                                       ! Object End Use Key
  ,                                       ! Quantity {dimensionless}
  54.164,                                 ! Material Cost {$}
  CostPerArea;                            ! Material Cost Units

OS:Material,
  {4e2fb90d-2b1f-4cf3-89d4-466189997446}, ! Handle
  MAT-CC05 8 HW CONCRETE,                 ! Name
  Rough,                                  ! Roughness
  0.20321,                                ! Thickness {m}
  1.311,                                  ! Conductivity {W/m-K}
  2240,                                   ! Density {kg/m3}
  836.8,                                  ! Specific Heat {J/kg-K}
  0.9,                                    ! Thermal Absorptance
  0.7,                                    ! Solar Absorptance
  0.7;                                    ! Visible Absorptance

OS:Material,
  {d07d6a0a-b47e-46ea-87dd-a8004ae9385e}, ! Handle
  Floor Insulation [3],                   ! Name
  MediumRough,                            ! Roughness
  0.0962549,                              ! Thickness {m}
  0.045,                                  ! Conductivity {W/m-K}
  265,                                    ! Density {kg/m3}
  836.8,                                  ! Specific Heat {J/kg-K}
  0.9,                                    ! Thermal Absorptance
  0.7,                                    ! Solar Absorptance
  0.7;                                    ! Visible Absorptance

OS:Construction,
  {261ff363-3934-4506-9e2c-b8b953086098}, ! Handle
  90.1-2004 Nonres 8A Exposed Floor Mass, ! Name
  ,                                       ! Surface Rendering Name
  {d07d6a0a-b47e-46ea-87dd-a8004ae9385e}, ! Layer 1
  {4e2fb90d-2b1f-4cf3-89d4-466189997446}, ! Layer 2
  {0a95a186-ef87-47cc-aa85-e49354bb8e49}; ! Layer 3

OS:Material:NoMass,
  {0a95a186-ef87-47cc-aa85-e49354bb8e49}, ! Handle
  CP02 CARPET PAD,                        ! Name
  VeryRough,                              ! Roughness
  0.21648,                                ! Thermal Resistance {m2-K/W}
  0.9,                                    ! Thermal Absorptance
  0.7,                                    ! Solar Absorptance
  0.8;                                    ! Visible Absorptance

