
OS:Version,
  {5b8170e1-c147-4930-9807-955321e7e496}, ! Handle
  0.9.3;                                  ! Version Identifier

OS:Material,
  {c4eaf4b5-f3eb-42a2-ae9f-6c237f84725f}, ! Handle
  MAT-CC05 4 HW CONCRETE,                 ! Name
  Rough,                                  ! Roughness
  0.1016,                                 ! Thickness {m}
  1.311,                                  ! Conductivity {W/m-K}
  2240,                                   ! Density {kg/m3}
  836.8,                                  ! Specific Heat {J/kg-K}
  0.9,                                    ! Thermal Absorptance
  0.7,                                    ! Solar Absorptance
  0.7;                                    ! Visible Absorptance

OS:Construction,
  {abc84f37-e5a4-40ae-88be-5d08b2f7b91b}, ! Handle
  90.1-1999 Nonres B22 Ext Slab Unheated - 4in Slab without Carpet, ! Name
  ,                                       ! Surface Rendering Name
  {c4eaf4b5-f3eb-42a2-ae9f-6c237f84725f}; ! Layer 1

OS:ComponentCost:LineItem,
  {3196c1c8-4df9-4f58-8515-987c2c6b9523}, ! Handle
  90.1-1999 Nonres B22 Ext Slab Unheated - 4in Slab without Carpet, ! Name
  ,                                       ! Type
  Construction,                           ! Line Item Type
  90.1-1999 Nonres B22 Ext Slab Unheated - 4in Slab without Carpet, ! Item Name
  ,                                       ! Object End Use Key
  ,                                       ! Quantity {dimensionless}
  45.52,                                  ! Material Cost {$}
  CostPerArea;                            ! Material Cost Units

