
OS:Version,
  {e073efc7-b02a-4078-bf3a-fd5a041197e4}, ! Handle
  0.9.3;                                  ! Version Identifier

OS:Material,
  {bc6f27a2-2a11-46f1-94bf-a745b2ef3100}, ! Handle
  MAT-CC05 8 HW CONCRETE,                 ! Name
  Rough,                                  ! Roughness
  0.20321,                                ! Thickness {m}
  1.311,                                  ! Conductivity {W/m-K}
  2240,                                   ! Density {kg/m3}
  836.8,                                  ! Specific Heat {J/kg-K}
  0.9,                                    ! Thermal Absorptance
  0.7,                                    ! Solar Absorptance
  0.7;                                    ! Visible Absorptance

OS:Construction,
  {4dfd4bf2-e15d-434f-8873-b62bd995f551}, ! Handle
  Title 24-2008 Nonres 1 Ext Slab Unheated - 8in Slab without Carpet, ! Name
  ,                                       ! Surface Rendering Name
  {bc6f27a2-2a11-46f1-94bf-a745b2ef3100}; ! Layer 1

OS:ComponentCost:LineItem,
  {c06ce066-9a87-4745-a729-e9e2a7469a6f}, ! Handle
  Title 24-2008 Nonres 1 Ext Slab Unheated - 8in Slab without Carpet, ! Name
  ,                                       ! Type
  Construction,                           ! Line Item Type
  Title 24-2008 Nonres 1 Ext Slab Unheated - 8in Slab without Carpet, ! Item Name
  ,                                       ! Object End Use Key
  ,                                       ! Quantity {dimensionless}
  45.52,                                  ! Material Cost {$}
  CostPerArea;                            ! Material Cost Units

