
OS:Version,
  {c41c60f7-2665-4a9b-a80d-5cfdd0ce9648}, ! Handle
  0.9.3;                                  ! Version Identifier

OS:Construction,
  {a6fc625c-80f6-4007-b98f-f2770f5774b5}, ! Handle
  Title 24-2008 Nonres 1 Ext Slab Unheated - 8in Slab without Carpet, ! Name
  ,                                       ! Surface Rendering Name
  {f8d15b1c-cd81-4a98-a1ae-cfd75fb03ad3}; ! Layer 1

OS:Material,
  {f8d15b1c-cd81-4a98-a1ae-cfd75fb03ad3}, ! Handle
  MAT-CC05 8 HW CONCRETE,                 ! Name
  Rough,                                  ! Roughness
  0.20321,                                ! Thickness {m}
  1.311,                                  ! Conductivity {W/m-K}
  2240,                                   ! Density {kg/m3}
  836.8,                                  ! Specific Heat {J/kg-K}
  0.9,                                    ! Thermal Absorptance
  0.7,                                    ! Solar Absorptance
  0.7;                                    ! Visible Absorptance

OS:ComponentCost:LineItem,
  {9b3b37ac-6fe7-4e36-9139-fc5244632d9e}, ! Handle
  Title 24-2008 Nonres 1 Ext Slab Unheated - 8in Slab without Carpet, ! Name
  ,                                       ! Type
  Construction,                           ! Line Item Type
  Title 24-2008 Nonres 1 Ext Slab Unheated - 8in Slab without Carpet, ! Item Name
  ,                                       ! Object End Use Key
  ,                                       ! Quantity {dimensionless}
  45.52,                                  ! Material Cost {$}
  CostPerArea;                            ! Material Cost Units

OS:ComponentData,
  {e25a329c-59a3-48db-9e6c-c42a56df42b2}, ! Handle
  Component Data 1,                       ! Name
  {64b3a674-0854-4d26-8327-56a9bca9d4f2}, ! UUID
  {51ad8feb-9b06-4523-85d0-90773b9b973a}, ! Version UUID
  1363981982,                             ! Creation Timestamp
  1363981982,                             ! Version Timestamp
  {a6fc625c-80f6-4007-b98f-f2770f5774b5}, ! Name of Object 1
  {f8d15b1c-cd81-4a98-a1ae-cfd75fb03ad3}, ! Name of Object 2
  {9b3b37ac-6fe7-4e36-9139-fc5244632d9e}; ! Name of Object 3

