
OS:Version,
  {da6a443b-f073-4685-b903-7364ec7a6a71}, ! Handle
  0.9.3;                                  ! Version Identifier

OS:Material,
  {735f6e62-1d66-4f23-b7c6-b27a1ee0f9f9}, ! Handle
  MAT-CC05 8 HW CONCRETE,                 ! Name
  Rough,                                  ! Roughness
  0.20321,                                ! Thickness {m}
  1.311,                                  ! Conductivity {W/m-K}
  2240,                                   ! Density {kg/m3}
  836.8,                                  ! Specific Heat {J/kg-K}
  0.9,                                    ! Thermal Absorptance
  0.7,                                    ! Solar Absorptance
  0.7;                                    ! Visible Absorptance

OS:Material,
  {2a566e41-814a-44d7-bada-145474b9b458}, ! Handle
  Floor Insulation [1],                   ! Name
  MediumRough,                            ! Roughness
  0.0463846,                              ! Thickness {m}
  0.045,                                  ! Conductivity {W/m-K}
  265,                                    ! Density {kg/m3}
  836.8,                                  ! Specific Heat {J/kg-K}
  0.9,                                    ! Thermal Absorptance
  0.7,                                    ! Solar Absorptance
  0.7;                                    ! Visible Absorptance

OS:Construction,
  {09af4710-ffec-4566-945f-2bcec86f5e73}, ! Handle
  90.1-2004 Nonres 3A Exposed Floor Mass, ! Name
  ,                                       ! Surface Rendering Name
  {2a566e41-814a-44d7-bada-145474b9b458}, ! Layer 1
  {735f6e62-1d66-4f23-b7c6-b27a1ee0f9f9}, ! Layer 2
  {484b422b-c2ca-484d-b20a-1fc68ab36bae}; ! Layer 3

OS:Material:NoMass,
  {484b422b-c2ca-484d-b20a-1fc68ab36bae}, ! Handle
  CP02 CARPET PAD,                        ! Name
  VeryRough,                              ! Roughness
  0.21648,                                ! Thermal Resistance {m2-K/W}
  0.9,                                    ! Thermal Absorptance
  0.7,                                    ! Solar Absorptance
  0.8;                                    ! Visible Absorptance

OS:ComponentCost:LineItem,
  {f26e0223-c0ab-40d7-b622-e43bb8d6ece8}, ! Handle
  90.1-2004 Nonres 3A Exposed Floor Mass, ! Name
  ,                                       ! Type
  Construction,                           ! Line Item Type
  90.1-2004 Nonres 3A Exposed Floor Mass, ! Item Name
  ,                                       ! Object End Use Key
  ,                                       ! Quantity {dimensionless}
  47.214,                                 ! Material Cost {$}
  CostPerArea;                            ! Material Cost Units

