
OS:Version,
  {e1ed2d4c-2ca5-444d-a159-23753a933245}, ! Handle
  0.9.3;                                  ! Version Identifier

OS:Material,
  {330cd4a7-f086-458c-b1e1-ea934a294307}, ! Handle
  1/2IN Gypsum,                           ! Name
  Smooth,                                 ! Roughness
  0.01271,                                ! Thickness {m}
  0.16,                                   ! Conductivity {W/m-K}
  784.9,                                  ! Density {kg/m3}
  830,                                    ! Specific Heat {J/kg-K}
  0.9,                                    ! Thermal Absorptance
  0.92,                                   ! Solar Absorptance
  0.92;                                   ! Visible Absorptance

OS:Material,
  {aa3aae3b-9cea-4bf8-bf37-f5604726d18c}, ! Handle
  Wall Insulation [5],                    ! Name
  MediumRough,                            ! Roughness
  0.0453274,                              ! Thickness {m}
  0.0432,                                 ! Conductivity {W/m-K}
  91,                                     ! Density {kg/m3}
  837,                                    ! Specific Heat {J/kg-K}
  0.9,                                    ! Thermal Absorptance
  0.5,                                    ! Solar Absorptance
  0.5;                                    ! Visible Absorptance

OS:Material,
  {15b64448-bf9f-4b44-8cc6-c24976ecaf45}, ! Handle
  8IN Concrete HW,                        ! Name
  MediumRough,                            ! Roughness
  0.2033,                                 ! Thickness {m}
  1.7296,                                 ! Conductivity {W/m-K}
  2243,                                   ! Density {kg/m3}
  837,                                    ! Specific Heat {J/kg-K}
  0.9,                                    ! Thermal Absorptance
  0.65,                                   ! Solar Absorptance
  0.65;                                   ! Visible Absorptance

OS:ComponentCost:LineItem,
  {683ceae2-219c-435a-b868-c0a69d8244ee}, ! Handle
  90.1-2001 Res B11 Ext Wall Mass,        ! Name
  ,                                       ! Type
  Construction,                           ! Line Item Type
  90.1-2001 Res B11 Ext Wall Mass,        ! Item Name
  ,                                       ! Object End Use Key
  ,                                       ! Quantity {dimensionless}
  61.418,                                 ! Material Cost {$}
  CostPerArea;                            ! Material Cost Units

OS:Construction,
  {1a6f99db-d95d-4a4d-b84e-6f9bf420431b}, ! Handle
  90.1-2001 Res B11 Ext Wall Mass,        ! Name
  ,                                       ! Surface Rendering Name
  {aaccc27a-8ed0-4b11-8f8f-1c87965d2330}, ! Layer 1
  {15b64448-bf9f-4b44-8cc6-c24976ecaf45}, ! Layer 2
  {aa3aae3b-9cea-4bf8-bf37-f5604726d18c}, ! Layer 3
  {330cd4a7-f086-458c-b1e1-ea934a294307}; ! Layer 4

OS:Material,
  {aaccc27a-8ed0-4b11-8f8f-1c87965d2330}, ! Handle
  1IN Stucco,                             ! Name
  Smooth,                                 ! Roughness
  0.0253,                                 ! Thickness {m}
  0.6918,                                 ! Conductivity {W/m-K}
  1858,                                   ! Density {kg/m3}
  837,                                    ! Specific Heat {J/kg-K}
  0.9,                                    ! Thermal Absorptance
  0.92,                                   ! Solar Absorptance
  0.92;                                   ! Visible Absorptance

