
OS:Version,
  {b9baf427-38d9-4dd0-afa4-e26dba8d12bd}, ! Handle
  0.9.3;                                  ! Version Identifier

OS:ComponentCost:LineItem,
  {a6461e7f-1f39-4efc-94ee-bce7a9e58168}, ! Handle
  90.1 Windows Window Fixed 2460 Brk-ClrSpe-Ins-ClrSpe, ! Name
  ,                                       ! Type
  Construction,                           ! Line Item Type
  90.1 Windows Window Fixed 2460 Brk-ClrSpe-Ins-ClrSpe, ! Item Name
  ,                                       ! Object End Use Key
  ,                                       ! Quantity {dimensionless}
  0,                                      ! Material Cost {$}
  CostPerArea;                            ! Material Cost Units

OS:Construction,
  {3636925a-de5b-4368-965e-ede092dfaba5}, ! Handle
  90.1 Windows Window Fixed 2460 Brk-ClrSpe-Ins-ClrSpe, ! Name
  ,                                       ! Surface Rendering Name
  {d8303112-fcc1-4be1-ad26-6f54e5b30ef6}; ! Layer 1

OS:WindowMaterial:Glazing,
  {d8303112-fcc1-4be1-ad26-6f54e5b30ef6}, ! Handle
  Theoretical Glass [599],                ! Name
  SpectralAverage,                        ! Optical Data Type
  ,                                       ! Window Glass Spectral Data Set Name
  0.003,                                  ! Thickness {m}
  0.464453,                               ! Solar Transmittance at Normal Incidence
  0.485547,                               ! Front Side Solar Reflectance at Normal Incidence
  0.485547,                               ! Back Side Solar Reflectance at Normal Incidence
  0.609218,                               ! Visible Transmittance at Normal Incidence
  0.340782,                               ! Front Side Visible Reflectance at Normal Incidence
  0.340782,                               ! Back Side Visible Reflectance at Normal Incidence
  0,                                      ! Infrared Transmittance at Normal Incidence
  0.9,                                    ! Front Side Infrared Hemispherical Emissivity
  0.9,                                    ! Back Side Infrared Hemispherical Emissivity
  0.0116215;                              ! Conductivity {W/m-K}

