
OS:Version,
  {ca7b260a-189b-4422-82ec-9e3058eebabb}, ! Handle
  0.9.3;                                  ! Version Identifier

OS:Construction,
  {6dc18b7c-f58d-4c43-8769-ea5e349b9f9f}, ! Handle
  90.1 Windows Window Fixed 2460 Brk-ClrSpe-Ins-ClrSpe, ! Name
  ,                                       ! Surface Rendering Name
  {26007d7b-8c24-4146-b2dc-d2d02db1a06e}; ! Layer 1

OS:WindowMaterial:Glazing,
  {26007d7b-8c24-4146-b2dc-d2d02db1a06e}, ! Handle
  Theoretical Glass [599],                ! Name
  SpectralAverage,                        ! Optical Data Type
  ,                                       ! Window Glass Spectral Data Set Name
  0.003,                                  ! Thickness {m}
  0.464453,                               ! Solar Transmittance at Normal Incidence
  0.485547,                               ! Front Side Solar Reflectance at Normal Incidence
  0.485547,                               ! Back Side Solar Reflectance at Normal Incidence
  0.609218,                               ! Visible Transmittance at Normal Incidence
  0.340782,                               ! Front Side Visible Reflectance at Normal Incidence
  0.340782,                               ! Back Side Visible Reflectance at Normal Incidence
  0,                                      ! Infrared Transmittance at Normal Incidence
  0.9,                                    ! Front Side Infrared Hemispherical Emissivity
  0.9,                                    ! Back Side Infrared Hemispherical Emissivity
  0.0116215;                              ! Conductivity {W/m-K}

OS:ComponentCost:LineItem,
  {adf4079a-0d21-4aa2-88ae-5e88f1613112}, ! Handle
  90.1 Windows Window Fixed 2460 Brk-ClrSpe-Ins-ClrSpe, ! Name
  ,                                       ! Type
  Construction,                           ! Line Item Type
  90.1 Windows Window Fixed 2460 Brk-ClrSpe-Ins-ClrSpe, ! Item Name
  ,                                       ! Object End Use Key
  ,                                       ! Quantity {dimensionless}
  0,                                      ! Material Cost {$}
  CostPerArea;                            ! Material Cost Units

OS:ComponentData,
  {e306744b-7536-4b70-b412-31e9e068462a}, ! Handle
  Component Data 1,                       ! Name
  {a4d45db9-6c22-46a5-94f2-62267d28b94a}, ! UUID
  {7ca7e420-5b19-4aab-923c-635926740336}, ! Version UUID
  1363981031,                             ! Creation Timestamp
  1363981031,                             ! Version Timestamp
  {6dc18b7c-f58d-4c43-8769-ea5e349b9f9f}, ! Name of Object 1
  {26007d7b-8c24-4146-b2dc-d2d02db1a06e}, ! Name of Object 2
  {adf4079a-0d21-4aa2-88ae-5e88f1613112}; ! Name of Object 3

