
OS:Version,
  {c37f6ce2-786e-4bdd-821d-8b6c47c8edb0}, ! Handle
  0.9.3;                                  ! Version Identifier

OS:ComponentCost:LineItem,
  {0637e01c-1564-401b-9d0b-43d949e4082d}, ! Handle
  90.1 Windows Window Fixed 2625 Vnl-GrnMpr-Ins-ClrPye, ! Name
  ,                                       ! Type
  Construction,                           ! Line Item Type
  90.1 Windows Window Fixed 2625 Vnl-GrnMpr-Ins-ClrPye, ! Item Name
  ,                                       ! Object End Use Key
  ,                                       ! Quantity {dimensionless}
  0,                                      ! Material Cost {$}
  CostPerArea;                            ! Material Cost Units

OS:Construction,
  {8695921d-e4c0-4e6c-8e2b-f4a744b1cdad}, ! Handle
  90.1 Windows Window Fixed 2625 Vnl-GrnMpr-Ins-ClrPye, ! Name
  ,                                       ! Surface Rendering Name
  {33173368-9237-4647-9179-25e235da38ee}; ! Layer 1

OS:WindowMaterial:Glazing,
  {33173368-9237-4647-9179-25e235da38ee}, ! Handle
  Theoretical Glass [502],                ! Name
  SpectralAverage,                        ! Optical Data Type
  ,                                       ! Window Glass Spectral Data Set Name
  0.003,                                  ! Thickness {m}
  0.25636,                                ! Solar Transmittance at Normal Incidence
  0.69364,                                ! Front Side Solar Reflectance at Normal Incidence
  0.69364,                                ! Back Side Solar Reflectance at Normal Incidence
  0.320998,                               ! Visible Transmittance at Normal Incidence
  0.629002,                               ! Front Side Visible Reflectance at Normal Incidence
  0.629002,                               ! Back Side Visible Reflectance at Normal Incidence
  0,                                      ! Infrared Transmittance at Normal Incidence
  0.9,                                    ! Front Side Infrared Hemispherical Emissivity
  0.9,                                    ! Back Side Infrared Hemispherical Emissivity
  0.00881945;                             ! Conductivity {W/m-K}

