
OS:Version,
  {f9197119-5c87-4163-b619-e4560e0a53ca}, ! Handle
  0.9.3;                                  ! Version Identifier

OS:Construction,
  {0260150f-4a08-4383-9e30-27b08ab88072}, ! Handle
  90.1 Windows Window Fixed 2625 Vnl-GrnMpr-Ins-ClrPye, ! Name
  ,                                       ! Surface Rendering Name
  {f4fecc05-728f-44da-8540-4d4b41b9bb49}; ! Layer 1

OS:WindowMaterial:Glazing,
  {f4fecc05-728f-44da-8540-4d4b41b9bb49}, ! Handle
  Theoretical Glass [502],                ! Name
  SpectralAverage,                        ! Optical Data Type
  ,                                       ! Window Glass Spectral Data Set Name
  0.003,                                  ! Thickness {m}
  0.25636,                                ! Solar Transmittance at Normal Incidence
  0.69364,                                ! Front Side Solar Reflectance at Normal Incidence
  0.69364,                                ! Back Side Solar Reflectance at Normal Incidence
  0.320998,                               ! Visible Transmittance at Normal Incidence
  0.629002,                               ! Front Side Visible Reflectance at Normal Incidence
  0.629002,                               ! Back Side Visible Reflectance at Normal Incidence
  0,                                      ! Infrared Transmittance at Normal Incidence
  0.9,                                    ! Front Side Infrared Hemispherical Emissivity
  0.9,                                    ! Back Side Infrared Hemispherical Emissivity
  0.00881945;                             ! Conductivity {W/m-K}

OS:ComponentCost:LineItem,
  {494000d7-b108-42f1-ac2c-3c9967e09df2}, ! Handle
  90.1 Windows Window Fixed 2625 Vnl-GrnMpr-Ins-ClrPye, ! Name
  ,                                       ! Type
  Construction,                           ! Line Item Type
  90.1 Windows Window Fixed 2625 Vnl-GrnMpr-Ins-ClrPye, ! Item Name
  ,                                       ! Object End Use Key
  ,                                       ! Quantity {dimensionless}
  0,                                      ! Material Cost {$}
  CostPerArea;                            ! Material Cost Units

OS:ComponentData,
  {4ddce90a-acd8-4f1f-8278-5cde93ce85ed}, ! Handle
  Component Data 1,                       ! Name
  {a0df0fad-229a-431d-8b6b-477c27d1af20}, ! UUID
  {32bbabec-6d74-4ec6-ad4b-48a645f95397}, ! Version UUID
  1363981024,                             ! Creation Timestamp
  1363981024,                             ! Version Timestamp
  {0260150f-4a08-4383-9e30-27b08ab88072}, ! Name of Object 1
  {f4fecc05-728f-44da-8540-4d4b41b9bb49}, ! Name of Object 2
  {494000d7-b108-42f1-ac2c-3c9967e09df2}; ! Name of Object 3

