
OS:Version,
  {966611b7-4e32-46af-b7bb-36cce38cd6d9}, ! Handle
  0.9.3;                                  ! Version Identifier

OS:Construction,
  {fb9a0c6a-94de-448f-afc5-d3da76022d99}, ! Handle
  189.1-2009 Res 6B Ext Wall Steel-Framed, ! Name
  ,                                       ! Surface Rendering Name
  {b07f214f-7b2e-474e-9c2e-3383ccaf03d3}, ! Layer 1
  {1ed2d4c6-b474-4272-a4b9-a79c653ea165}, ! Layer 2
  {2dcf0475-d784-48ee-8a8c-13a3f0d5afe9}; ! Layer 3

OS:Material:NoMass,
  {b07f214f-7b2e-474e-9c2e-3383ccaf03d3}, ! Handle
  MAT-SHEATH,                             ! Name
  Rough,                                  ! Roughness
  0.36256,                                ! Thermal Resistance {m2-K/W}
  0.9,                                    ! Thermal Absorptance
  0.7,                                    ! Solar Absorptance
  0.7;                                    ! Visible Absorptance

OS:Material,
  {1ed2d4c6-b474-4272-a4b9-a79c653ea165}, ! Handle
  Wall Insulation [39],                   ! Name
  MediumRough,                            ! Roughness
  0.118387,                               ! Thickness {m}
  0.045,                                  ! Conductivity {W/m-K}
  265,                                    ! Density {kg/m3}
  836.8,                                  ! Specific Heat {J/kg-K}
  0.9,                                    ! Thermal Absorptance
  0.7,                                    ! Solar Absorptance
  0.7;                                    ! Visible Absorptance

OS:Material,
  {2dcf0475-d784-48ee-8a8c-13a3f0d5afe9}, ! Handle
  1/2IN Gypsum,                           ! Name
  Smooth,                                 ! Roughness
  0.01271,                                ! Thickness {m}
  0.16,                                   ! Conductivity {W/m-K}
  784.9,                                  ! Density {kg/m3}
  830,                                    ! Specific Heat {J/kg-K}
  0.9,                                    ! Thermal Absorptance
  0.92,                                   ! Solar Absorptance
  0.92;                                   ! Visible Absorptance

OS:ComponentCost:LineItem,
  {c47361a0-d067-4686-8d3a-8f94a9a72fe5}, ! Handle
  189.1-2009 Res 6B Ext Wall Steel-Framed, ! Name
  ,                                       ! Type
  Construction,                           ! Line Item Type
  189.1-2009 Res 6B Ext Wall Steel-Framed, ! Item Name
  ,                                       ! Object End Use Key
  ,                                       ! Quantity {dimensionless}
  97.51,                                  ! Material Cost {$}
  CostPerArea;                            ! Material Cost Units

OS:ComponentData,
  {084d8f58-c66e-4d72-ab3b-876e0300cc7f}, ! Handle
  Component Data 1,                       ! Name
  {ad088320-1d67-4b5c-bb0f-f592dc4ffc20}, ! UUID
  {bbad7bae-69ca-4367-b52a-f7f88ab81270}, ! Version UUID
  1363980980,                             ! Creation Timestamp
  1363980980,                             ! Version Timestamp
  {fb9a0c6a-94de-448f-afc5-d3da76022d99}, ! Name of Object 1
  {b07f214f-7b2e-474e-9c2e-3383ccaf03d3}, ! Name of Object 2
  {1ed2d4c6-b474-4272-a4b9-a79c653ea165}, ! Name of Object 3
  {2dcf0475-d784-48ee-8a8c-13a3f0d5afe9}, ! Name of Object 4
  {c47361a0-d067-4686-8d3a-8f94a9a72fe5}; ! Name of Object 5

