
OS:Version,
  {6b468c8e-b7a3-4fef-a4d0-fc62fb8afadc}, ! Handle
  0.9.3;                                  ! Version Identifier

OS:Construction,
  {d7f2ce0f-028b-407e-8da6-f1b6b2218b4b}, ! Handle
  189.1-2009 Res 6B Ext Wall Steel-Framed, ! Name
  ,                                       ! Surface Rendering Name
  {311bac04-54b1-4942-84b8-9fd092b1340c}, ! Layer 1
  {d8cf011e-e883-4085-918e-724192cbd3ae}, ! Layer 2
  {9bdcb369-3dea-474c-a574-e8ba651a539f}; ! Layer 3

OS:Material:NoMass,
  {311bac04-54b1-4942-84b8-9fd092b1340c}, ! Handle
  MAT-SHEATH,                             ! Name
  Rough,                                  ! Roughness
  0.36256,                                ! Thermal Resistance {m2-K/W}
  0.9,                                    ! Thermal Absorptance
  0.7,                                    ! Solar Absorptance
  0.7;                                    ! Visible Absorptance

OS:Material,
  {d8cf011e-e883-4085-918e-724192cbd3ae}, ! Handle
  Wall Insulation [39],                   ! Name
  MediumRough,                            ! Roughness
  0.118387,                               ! Thickness {m}
  0.045,                                  ! Conductivity {W/m-K}
  265,                                    ! Density {kg/m3}
  836.8,                                  ! Specific Heat {J/kg-K}
  0.9,                                    ! Thermal Absorptance
  0.7,                                    ! Solar Absorptance
  0.7;                                    ! Visible Absorptance

OS:Material,
  {9bdcb369-3dea-474c-a574-e8ba651a539f}, ! Handle
  1/2IN Gypsum,                           ! Name
  Smooth,                                 ! Roughness
  0.01271,                                ! Thickness {m}
  0.16,                                   ! Conductivity {W/m-K}
  784.9,                                  ! Density {kg/m3}
  830,                                    ! Specific Heat {J/kg-K}
  0.9,                                    ! Thermal Absorptance
  0.92,                                   ! Solar Absorptance
  0.92;                                   ! Visible Absorptance

OS:ComponentCost:LineItem,
  {104bf35a-f3e9-4139-8a72-6e01a9c6ed19}, ! Handle
  189.1-2009 Res 6B Ext Wall Steel-Framed, ! Name
  ,                                       ! Type
  Construction,                           ! Line Item Type
  189.1-2009 Res 6B Ext Wall Steel-Framed, ! Item Name
  ,                                       ! Object End Use Key
  ,                                       ! Quantity {dimensionless}
  97.51,                                  ! Material Cost {$}
  CostPerArea;                            ! Material Cost Units

