
OS:Version,
  {375d1b34-30bf-4689-9118-e10ce05cc55e}, ! Handle
  0.9.3;                                  ! Version Identifier

OS:ComponentCost:LineItem,
  {8dd7172b-d34a-4025-923e-587138720ba0}, ! Handle
  Title 24-2008 Nonres 2 Skylight Glass Skylight with Curb, ! Name
  ,                                       ! Type
  Construction,                           ! Line Item Type
  Title 24-2008 Nonres 2 Skylight Glass Skylight with Curb, ! Item Name
  ,                                       ! Object End Use Key
  ,                                       ! Quantity {dimensionless}
  480.601,                                ! Material Cost {$}
  CostPerArea;                            ! Material Cost Units

OS:Construction,
  {6a5aeff9-b43d-40ef-ba8c-f74bd94a8baf}, ! Handle
  Title 24-2008 Nonres 2 Skylight Glass Skylight with Curb, ! Name
  ,                                       ! Surface Rendering Name
  {84ea64f2-77d6-41d1-9743-8fbf2bb3cdc7}; ! Layer 1

OS:WindowMaterial:Glazing,
  {84ea64f2-77d6-41d1-9743-8fbf2bb3cdc7}, ! Handle
  Theoretical Glass [665],                ! Name
  SpectralAverage,                        ! Optical Data Type
  ,                                       ! Window Glass Spectral Data Set Name
  0.003,                                  ! Thickness {m}
  0.347698,                               ! Solar Transmittance at Normal Incidence
  0.602302,                               ! Front Side Solar Reflectance at Normal Incidence
  0.602302,                               ! Back Side Solar Reflectance at Normal Incidence
  0.360158,                               ! Visible Transmittance at Normal Incidence
  0.589842,                               ! Front Side Visible Reflectance at Normal Incidence
  0.589842,                               ! Back Side Visible Reflectance at Normal Incidence
  0,                                      ! Infrared Transmittance at Normal Incidence
  0.91,                                   ! Front Side Infrared Hemispherical Emissivity
  0.91,                                   ! Back Side Infrared Hemispherical Emissivity
  0.387053;                               ! Conductivity {W/m-K}

