
OS:Version,
  {b5ea6d35-6174-491f-9970-7ae95038311c}, ! Handle
  0.9.3;                                  ! Version Identifier

OS:Material,
  {13764773-17a3-440d-8800-10b895f6ef77}, ! Handle
  Wall Insulation [1],                    ! Name
  MediumRough,                            ! Roughness
  0.0373223,                              ! Thickness {m}
  0.045,                                  ! Conductivity {W/m-K}
  265,                                    ! Density {kg/m3}
  836.8,                                  ! Specific Heat {J/kg-K}
  0.9,                                    ! Thermal Absorptance
  0.7,                                    ! Solar Absorptance
  0.7;                                    ! Visible Absorptance

OS:Material:NoMass,
  {15aaa2bb-f45a-4505-a71a-e990161e55cc}, ! Handle
  MAT-SHEATH,                             ! Name
  Rough,                                  ! Roughness
  0.36256,                                ! Thermal Resistance {m2-K/W}
  0.9,                                    ! Thermal Absorptance
  0.7,                                    ! Solar Absorptance
  0.7;                                    ! Visible Absorptance

OS:ComponentCost:LineItem,
  {7ab36a9a-4719-48ad-97fd-9e08f1a443de}, ! Handle
  90.1-1999 Res B3 Ext Wall Steel-Framed, ! Name
  ,                                       ! Type
  Construction,                           ! Line Item Type
  90.1-1999 Res B3 Ext Wall Steel-Framed, ! Item Name
  ,                                       ! Object End Use Key
  ,                                       ! Quantity {dimensionless}
  87.08,                                  ! Material Cost {$}
  CostPerArea;                            ! Material Cost Units

OS:Construction,
  {50841dc2-d406-42ac-a1d5-0b9070f49d9b}, ! Handle
  90.1-1999 Res B3 Ext Wall Steel-Framed, ! Name
  ,                                       ! Surface Rendering Name
  {15aaa2bb-f45a-4505-a71a-e990161e55cc}, ! Layer 1
  {13764773-17a3-440d-8800-10b895f6ef77}, ! Layer 2
  {1ff253d2-e2b8-495c-836c-769883d9a900}; ! Layer 3

OS:Material,
  {1ff253d2-e2b8-495c-836c-769883d9a900}, ! Handle
  1/2IN Gypsum,                           ! Name
  Smooth,                                 ! Roughness
  0.01271,                                ! Thickness {m}
  0.16,                                   ! Conductivity {W/m-K}
  784.9,                                  ! Density {kg/m3}
  830,                                    ! Specific Heat {J/kg-K}
  0.9,                                    ! Thermal Absorptance
  0.92,                                   ! Solar Absorptance
  0.92;                                   ! Visible Absorptance

