
OS:Version,
  {1757cdf0-0aa9-4f01-ba33-4446f4d60b0e}, ! Handle
  0.9.3;                                  ! Version Identifier

OS:Construction,
  {e5401347-fd70-41a5-b4f8-b1a11e1b7b64}, ! Handle
  90.1-2007 Res 3A Skylight without Curb, ! Name
  ,                                       ! Surface Rendering Name
  {5824fe9d-7741-40cf-9880-7e6e09c30695}; ! Layer 1

OS:WindowMaterial:Glazing,
  {5824fe9d-7741-40cf-9880-7e6e09c30695}, ! Handle
  Theoretical Glass [195],                ! Name
  SpectralAverage,                        ! Optical Data Type
  ,                                       ! Window Glass Spectral Data Set Name
  0.003,                                  ! Thickness {m}
  0.352315,                               ! Solar Transmittance at Normal Incidence
  0.597685,                               ! Front Side Solar Reflectance at Normal Incidence
  0.597685,                               ! Back Side Solar Reflectance at Normal Incidence
  0.457336,                               ! Visible Transmittance at Normal Incidence
  0.492664,                               ! Front Side Visible Reflectance at Normal Incidence
  0.492664,                               ! Back Side Visible Reflectance at Normal Incidence
  0,                                      ! Infrared Transmittance at Normal Incidence
  0.9,                                    ! Front Side Infrared Hemispherical Emissivity
  0.9,                                    ! Back Side Infrared Hemispherical Emissivity
  0.03026;                                ! Conductivity {W/m-K}

OS:ComponentCost:LineItem,
  {d4fd192f-db5a-4410-84c3-7ef63d477276}, ! Handle
  90.1-2007 Res 3A Skylight without Curb, ! Name
  ,                                       ! Type
  Construction,                           ! Line Item Type
  90.1-2007 Res 3A Skylight without Curb, ! Item Name
  ,                                       ! Object End Use Key
  ,                                       ! Quantity {dimensionless}
  526.439,                                ! Material Cost {$}
  CostPerArea;                            ! Material Cost Units

