
OS:Version,
  {809912a5-1794-44f3-b8b5-6523e45817e2}, ! Handle
  0.9.3;                                  ! Version Identifier

OS:WindowMaterial:Glazing,
  {30ad1dfe-bfaf-472f-aa3a-2d4da3ecb9bb}, ! Handle
  Theoretical Glass [318],                ! Name
  SpectralAverage,                        ! Optical Data Type
  ,                                       ! Window Glass Spectral Data Set Name
  0.003,                                  ! Thickness {m}
  0.462282,                               ! Solar Transmittance at Normal Incidence
  0.487718,                               ! Front Side Solar Reflectance at Normal Incidence
  0.487718,                               ! Back Side Solar Reflectance at Normal Incidence
  0.429741,                               ! Visible Transmittance at Normal Incidence
  0.520259,                               ! Front Side Visible Reflectance at Normal Incidence
  0.520259,                               ! Back Side Visible Reflectance at Normal Incidence
  0,                                      ! Infrared Transmittance at Normal Incidence
  0.9,                                    ! Front Side Infrared Hemispherical Emissivity
  0.9,                                    ! Back Side Infrared Hemispherical Emissivity
  0.0213046;                              ! Conductivity {W/m-K}

OS:ComponentCost:LineItem,
  {b6459c94-5027-44f6-9705-1b1ad46888ad}, ! Handle
  90.1 Windows Window Fixed 2414 Brk-ClrMpr-Ins-Clr, ! Name
  ,                                       ! Type
  Construction,                           ! Line Item Type
  90.1 Windows Window Fixed 2414 Brk-ClrMpr-Ins-Clr, ! Item Name
  ,                                       ! Object End Use Key
  ,                                       ! Quantity {dimensionless}
  0,                                      ! Material Cost {$}
  CostPerArea;                            ! Material Cost Units

OS:Construction,
  {b1e862bc-8c1d-4de9-8e17-6a3889a6f3eb}, ! Handle
  90.1 Windows Window Fixed 2414 Brk-ClrMpr-Ins-Clr, ! Name
  ,                                       ! Surface Rendering Name
  {30ad1dfe-bfaf-472f-aa3a-2d4da3ecb9bb}; ! Layer 1

