
OS:Version,
  {b84a3adb-3d94-4de2-9d9c-7a90581a1297}, ! Handle
  0.9.3;                                  ! Version Identifier

OS:Material,
  {6bcdf42c-c1b2-46cc-90e5-17b1ceacc78a}, ! Handle
  GP01 1/2 GYPSUM,                        ! Name
  Smooth,                                 ! Roughness
  0.01271,                                ! Thickness {m}
  0.16,                                   ! Conductivity {W/m-K}
  800,                                    ! Density {kg/m3}
  1090,                                   ! Specific Heat {J/kg-K}
  0.9,                                    ! Thermal Absorptance
  0.7,                                    ! Solar Absorptance
  0.5;                                    ! Visible Absorptance

OS:Construction,
  {502b05e3-17ad-4644-a2e4-7e7a2e01d678}, ! Handle
  90.1-2001 Nonres B11 Int Wall,          ! Name
  ,                                       ! Surface Rendering Name
  {6bcdf42c-c1b2-46cc-90e5-17b1ceacc78a}, ! Layer 1
  {6bcdf42c-c1b2-46cc-90e5-17b1ceacc78a}; ! Layer 2

OS:ComponentCost:LineItem,
  {99132761-9b50-4f6d-8929-22e725e38fa3}, ! Handle
  90.1-2001 Nonres B11 Int Wall,          ! Name
  ,                                       ! Type
  Construction,                           ! Line Item Type
  90.1-2001 Nonres B11 Int Wall,          ! Item Name
  ,                                       ! Object End Use Key
  ,                                       ! Quantity {dimensionless}
  0,                                      ! Material Cost {$}
  CostPerArea;                            ! Material Cost Units

OS:Material,
  {6c63bdfc-0477-42ce-8ae4-de0ba8a7fb0e}, ! Handle
  GP01 1/2 GYPSUM 1,                      ! Name
  Smooth,                                 ! Roughness
  0.01271,                                ! Thickness {m}
  0.16,                                   ! Conductivity {W/m-K}
  800,                                    ! Density {kg/m3}
  1090,                                   ! Specific Heat {J/kg-K}
  0.9,                                    ! Thermal Absorptance
  0.7,                                    ! Solar Absorptance
  0.5;                                    ! Visible Absorptance

