
OS:Version,
  {6bc69cf9-e77c-4db3-8d99-89c07ab99a59}, ! Handle
  0.9.3;                                  ! Version Identifier

OS:Material:NoMass,
  {c3cea69a-c285-4d45-a481-7fe0190b4e7a}, ! Handle
  CP02 CARPET PAD,                        ! Name
  VeryRough,                              ! Roughness
  0.21648,                                ! Thermal Resistance {m2-K/W}
  0.9,                                    ! Thermal Absorptance
  0.7,                                    ! Solar Absorptance
  0.8;                                    ! Visible Absorptance

OS:Material,
  {76230f3e-3b20-4e6b-98c9-022919bee878}, ! Handle
  MAT-CC05 8 HW CONCRETE,                 ! Name
  Rough,                                  ! Roughness
  0.20321,                                ! Thickness {m}
  1.311,                                  ! Conductivity {W/m-K}
  2240,                                   ! Density {kg/m3}
  836.8,                                  ! Specific Heat {J/kg-K}
  0.9,                                    ! Thermal Absorptance
  0.7,                                    ! Solar Absorptance
  0.7;                                    ! Visible Absorptance

OS:ComponentCost:LineItem,
  {c83e9f55-3211-47a0-8bc8-a2a9d03f618e}, ! Handle
  Title 24-2008 Nonres 14 Ext Slab Unheated - 8in Slab with Carpet, ! Name
  ,                                       ! Type
  Construction,                           ! Line Item Type
  Title 24-2008 Nonres 14 Ext Slab Unheated - 8in Slab with Carpet, ! Item Name
  ,                                       ! Object End Use Key
  ,                                       ! Quantity {dimensionless}
  45.52,                                  ! Material Cost {$}
  CostPerArea;                            ! Material Cost Units

OS:Construction,
  {e6127fa0-6b3a-4761-8bce-25deea5268f5}, ! Handle
  Title 24-2008 Nonres 14 Ext Slab Unheated - 8in Slab with Carpet, ! Name
  ,                                       ! Surface Rendering Name
  {76230f3e-3b20-4e6b-98c9-022919bee878}, ! Layer 1
  {c3cea69a-c285-4d45-a481-7fe0190b4e7a}; ! Layer 2

