
OS:Version,
  {bc9bd158-9894-4008-bb15-3d42373b6962}, ! Handle
  0.9.3;                                  ! Version Identifier

OS:Material:NoMass,
  {c12b9a24-2f23-4c9c-b99c-f9cdfc0ea85f}, ! Handle
  CP02 CARPET PAD,                        ! Name
  VeryRough,                              ! Roughness
  0.21648,                                ! Thermal Resistance {m2-K/W}
  0.9,                                    ! Thermal Absorptance
  0.7,                                    ! Solar Absorptance
  0.8;                                    ! Visible Absorptance

OS:Material,
  {9d89daf3-df56-4995-9d6e-cc2dd08f4adc}, ! Handle
  MAT-CC05 4 HW CONCRETE,                 ! Name
  Rough,                                  ! Roughness
  0.1016,                                 ! Thickness {m}
  1.311,                                  ! Conductivity {W/m-K}
  2240,                                   ! Density {kg/m3}
  836.8,                                  ! Specific Heat {J/kg-K}
  0.9,                                    ! Thermal Absorptance
  0.7,                                    ! Solar Absorptance
  0.7;                                    ! Visible Absorptance

OS:ComponentCost:LineItem,
  {217c6ca1-3374-4cc9-9138-9bdb1353c0aa}, ! Handle
  Title 24-2005 Nonres 2 Ext Slab Unheated - 4in Slab with Carpet, ! Name
  ,                                       ! Type
  Construction,                           ! Line Item Type
  Title 24-2005 Nonres 2 Ext Slab Unheated - 4in Slab with Carpet, ! Item Name
  ,                                       ! Object End Use Key
  ,                                       ! Quantity {dimensionless}
  45.52,                                  ! Material Cost {$}
  CostPerArea;                            ! Material Cost Units

OS:Construction,
  {dab2809c-ab8e-4e9d-9782-2e9f091ca6db}, ! Handle
  Title 24-2005 Nonres 2 Ext Slab Unheated - 4in Slab with Carpet, ! Name
  ,                                       ! Surface Rendering Name
  {9d89daf3-df56-4995-9d6e-cc2dd08f4adc}, ! Layer 1
  {c12b9a24-2f23-4c9c-b99c-f9cdfc0ea85f}; ! Layer 2

