
OS:Version,
  {4fb12123-38f2-4031-8ec8-7fcc66789cc7}, ! Handle
  0.9.3;                                  ! Version Identifier

OS:ComponentCost:LineItem,
  {f76e7074-5919-45ba-acb4-5558b73b946a}, ! Handle
  90.1-1999 Res B20 Ext Wall Steel-Framed, ! Name
  ,                                       ! Type
  Construction,                           ! Line Item Type
  90.1-1999 Res B20 Ext Wall Steel-Framed, ! Item Name
  ,                                       ! Object End Use Key
  ,                                       ! Quantity {dimensionless}
  94.657,                                 ! Material Cost {$}
  CostPerArea;                            ! Material Cost Units

OS:Material:NoMass,
  {19fbfcbf-849a-4d9c-9b17-e1af991dcdca}, ! Handle
  MAT-SHEATH,                             ! Name
  Rough,                                  ! Roughness
  0.36256,                                ! Thermal Resistance {m2-K/W}
  0.9,                                    ! Thermal Absorptance
  0.7,                                    ! Solar Absorptance
  0.7;                                    ! Visible Absorptance

OS:Material,
  {f34406f6-4a45-4623-bb56-c58d2a6547bc}, ! Handle
  1/2IN Gypsum,                           ! Name
  Smooth,                                 ! Roughness
  0.01271,                                ! Thickness {m}
  0.16,                                   ! Conductivity {W/m-K}
  784.9,                                  ! Density {kg/m3}
  830,                                    ! Specific Heat {J/kg-K}
  0.9,                                    ! Thermal Absorptance
  0.92,                                   ! Solar Absorptance
  0.92;                                   ! Visible Absorptance

OS:Construction,
  {cecff5e7-c4e6-46d8-a723-d98b81ef6fe5}, ! Handle
  90.1-1999 Res B20 Ext Wall Steel-Framed, ! Name
  ,                                       ! Surface Rendering Name
  {19fbfcbf-849a-4d9c-9b17-e1af991dcdca}, ! Layer 1
  {82ac2205-cb23-4687-b966-03bbc80ecaf7}, ! Layer 2
  {f34406f6-4a45-4623-bb56-c58d2a6547bc}; ! Layer 3

OS:Material,
  {82ac2205-cb23-4687-b966-03bbc80ecaf7}, ! Handle
  Wall Insulation [10],                   ! Name
  MediumRough,                            ! Roughness
  0.0971136,                              ! Thickness {m}
  0.045,                                  ! Conductivity {W/m-K}
  265,                                    ! Density {kg/m3}
  836.8,                                  ! Specific Heat {J/kg-K}
  0.9,                                    ! Thermal Absorptance
  0.7,                                    ! Solar Absorptance
  0.7;                                    ! Visible Absorptance

