
OS:Version,
  {389bc13e-beab-481d-9550-174188f95edd}, !- Handle
  1.1.0;                                  !- Version Identifier

OS:Construction,
  {0493d4bd-ba50-44a7-abcc-33686507b0f1}, !- Handle
  Sgl Ref-C-H Clr 6mm,                    !- Name
  ,                                       !- Surface Rendering Name
  {780dec78-b79f-42b7-a852-1659294bae3e}; !- Layer 1

OS:WindowMaterial:Glazing,
  {780dec78-b79f-42b7-a852-1659294bae3e}, !- Handle
  REF C CLEAR HI 6MM,                     !- Name
  SpectralAverage,                        !- Optical Data Type
  ,                                       !- Window Glass Spectral Data Set Name
  0.006,                                  !- Thickness {m}
  0.2,                                    !- Solar Transmittance at Normal Incidence
  0.16,                                   !- Front Side Solar Reflectance at Normal Incidence
  0.39,                                   !- Back Side Solar Reflectance at Normal Incidence
  0.22,                                   !- Visible Transmittance at Normal Incidence
  0.17,                                   !- Front Side Visible Reflectance at Normal Incidence
  0.35,                                   !- Back Side Visible Reflectance at Normal Incidence
  0,                                      !- Infrared Transmittance at Normal Incidence
  0.84,                                   !- Front Side Infrared Hemispherical Emissivity
  0.55,                                   !- Back Side Infrared Hemispherical Emissivity
  0.9;                                    !- Conductivity {W/m-K}

