
OS:Version,
  {d669e111-8365-4f74-8cc6-d89fe914f9e8}, !- Handle
  1.1.0;                                  !- Version Identifier

OS:Construction,
  {18749da3-5954-4efe-8a74-721d918a42df}, !- Handle
  Dbl Elec Ref Colored 6mm/6mm Air,       !- Name
  ,                                       !- Surface Rendering Name
  {c5670e2e-245c-4d4a-8f38-22d9e4c65280}, !- Layer 1
  {e625bead-b4f3-46d3-9f20-ac386677bd58}, !- Layer 2
  {c99b83c1-1983-4ed3-97aa-1cdd5b4dbe07}; !- Layer 3

OS:WindowMaterial:Glazing,
  {c5670e2e-245c-4d4a-8f38-22d9e4c65280}, !- Handle
  ECREF-2 COLORED 6MM,                    !- Name
  SpectralAverage,                        !- Optical Data Type
  ,                                       !- Window Glass Spectral Data Set Name
  0.006,                                  !- Thickness {m}
  0.099,                                  !- Solar Transmittance at Normal Incidence
  0.219,                                  !- Front Side Solar Reflectance at Normal Incidence
  0.219,                                  !- Back Side Solar Reflectance at Normal Incidence
  0.155,                                  !- Visible Transmittance at Normal Incidence
  0.073,                                  !- Front Side Visible Reflectance at Normal Incidence
  0.073,                                  !- Back Side Visible Reflectance at Normal Incidence
  0,                                      !- Infrared Transmittance at Normal Incidence
  0.84,                                   !- Front Side Infrared Hemispherical Emissivity
  0.1,                                    !- Back Side Infrared Hemispherical Emissivity
  0.9;                                    !- Conductivity {W/m-K}

OS:WindowMaterial:Gas,
  {e625bead-b4f3-46d3-9f20-ac386677bd58}, !- Handle
  AIR 6MM,                                !- Name
  Air,                                    !- Gas Type
  0.0063;                                 !- Thickness {m}

OS:WindowMaterial:Glazing,
  {c99b83c1-1983-4ed3-97aa-1cdd5b4dbe07}, !- Handle
  CLEAR 6MM,                              !- Name
  SpectralAverage,                        !- Optical Data Type
  ,                                       !- Window Glass Spectral Data Set Name
  0.006,                                  !- Thickness {m}
  0.775,                                  !- Solar Transmittance at Normal Incidence
  0.071,                                  !- Front Side Solar Reflectance at Normal Incidence
  0.071,                                  !- Back Side Solar Reflectance at Normal Incidence
  0.881,                                  !- Visible Transmittance at Normal Incidence
  0.08,                                   !- Front Side Visible Reflectance at Normal Incidence
  0.08,                                   !- Back Side Visible Reflectance at Normal Incidence
  0,                                      !- Infrared Transmittance at Normal Incidence
  0.84,                                   !- Front Side Infrared Hemispherical Emissivity
  0.84,                                   !- Back Side Infrared Hemispherical Emissivity
  0.9;                                    !- Conductivity {W/m-K}

