
OS:Version,
  {b62f6df4-21a5-4646-920e-833b9493c8ec}, ! Handle
  0.9.3;                                  ! Version Identifier

OS:Construction,
  {c833052c-10c3-4a04-b67b-de07061bbce8}, ! Handle
  AEDG K12 Nonres 3A Roof IEAD,           ! Name
  ,                                       ! Surface Rendering Name
  {5ad5445d-1df4-4089-8e24-8acd152a593b}, ! Layer 1
  {ae528399-29b4-48a3-9572-03b4554071dd}, ! Layer 2
  {d605c9b3-4d85-4cb4-8aa7-a5fbb50c6238}; ! Layer 3

OS:Material,
  {5ad5445d-1df4-4089-8e24-8acd152a593b}, ! Handle
  Roof Membrane,                          ! Name
  VeryRough,                              ! Roughness
  0.0095,                                 ! Thickness {m}
  0.16,                                   ! Conductivity {W/m-K}
  1121.29,                                ! Density {kg/m3}
  1460,                                   ! Specific Heat {J/kg-K}
  0.9,                                    ! Thermal Absorptance
  0.7,                                    ! Solar Absorptance
  0.7;                                    ! Visible Absorptance

OS:Material,
  {ae528399-29b4-48a3-9572-03b4554071dd}, ! Handle
  Roof Insulation,                        ! Name
  MediumRough,                            ! Roughness
  0.124958,                               ! Thickness {m}
  0.049,                                  ! Conductivity {W/m-K}
  265,                                    ! Density {kg/m3}
  836.8,                                  ! Specific Heat {J/kg-K}
  0.9,                                    ! Thermal Absorptance
  0.7,                                    ! Solar Absorptance
  0.7;                                    ! Visible Absorptance

OS:Material,
  {d605c9b3-4d85-4cb4-8aa7-a5fbb50c6238}, ! Handle
  Metal Decking,                          ! Name
  MediumSmooth,                           ! Roughness
  0.001524,                               ! Thickness {m}
  45.006,                                 ! Conductivity {W/m-K}
  7680,                                   ! Density {kg/m3}
  418.4,                                  ! Specific Heat {J/kg-K}
  0.9,                                    ! Thermal Absorptance
  0.7,                                    ! Solar Absorptance
  0.3;                                    ! Visible Absorptance

OS:ComponentCost:LineItem,
  {a47dd2a3-c2e6-4bc0-975a-8cfdbc0e10bb}, ! Handle
  AEDG K12 Nonres 3A Roof IEAD,           ! Name
  ,                                       ! Type
  Construction,                           ! Line Item Type
  AEDG K12 Nonres 3A Roof IEAD,           ! Item Name
  ,                                       ! Object End Use Key
  ,                                       ! Quantity {dimensionless}
  98.49,                                  ! Material Cost {$}
  CostPerArea;                            ! Material Cost Units

OS:ComponentData,
  {b7e8e8c2-b9c8-44e1-82ce-00d3b611ca28}, ! Handle
  Component Data 1,                       ! Name
  {d1f5d4a8-d73e-4b87-9aae-0a1dee19f49b}, ! UUID
  {55982735-06ef-49ef-8830-5bb3c401ec5d}, ! Version UUID
  1363981887,                             ! Creation Timestamp
  1363981887,                             ! Version Timestamp
  {c833052c-10c3-4a04-b67b-de07061bbce8}, ! Name of Object 1
  {5ad5445d-1df4-4089-8e24-8acd152a593b}, ! Name of Object 2
  {ae528399-29b4-48a3-9572-03b4554071dd}, ! Name of Object 3
  {d605c9b3-4d85-4cb4-8aa7-a5fbb50c6238}, ! Name of Object 4
  {a47dd2a3-c2e6-4bc0-975a-8cfdbc0e10bb}; ! Name of Object 5

