
OS:Version,
  {c7e09481-2df4-4489-a38d-d9e43807211d}, ! Handle
  0.9.3;                                  ! Version Identifier

OS:Material,
  {33456f55-a592-4933-8ee4-275d46d5997a}, ! Handle
  Metal Decking,                          ! Name
  MediumSmooth,                           ! Roughness
  0.001524,                               ! Thickness {m}
  45.006,                                 ! Conductivity {W/m-K}
  7680,                                   ! Density {kg/m3}
  418.4,                                  ! Specific Heat {J/kg-K}
  0.9,                                    ! Thermal Absorptance
  0.7,                                    ! Solar Absorptance
  0.3;                                    ! Visible Absorptance

OS:Construction,
  {b8355507-f409-4ffa-a438-ae6972895da7}, ! Handle
  AEDG K12 Nonres 3A Roof IEAD,           ! Name
  ,                                       ! Surface Rendering Name
  {0c179251-c659-4424-a47b-f33ad744b641}, ! Layer 1
  {73566b4d-1529-418f-aa88-90d129466fe3}, ! Layer 2
  {33456f55-a592-4933-8ee4-275d46d5997a}; ! Layer 3

OS:Material,
  {0c179251-c659-4424-a47b-f33ad744b641}, ! Handle
  Roof Membrane,                          ! Name
  VeryRough,                              ! Roughness
  0.0095,                                 ! Thickness {m}
  0.16,                                   ! Conductivity {W/m-K}
  1121.29,                                ! Density {kg/m3}
  1460,                                   ! Specific Heat {J/kg-K}
  0.9,                                    ! Thermal Absorptance
  0.7,                                    ! Solar Absorptance
  0.7;                                    ! Visible Absorptance

OS:Material,
  {73566b4d-1529-418f-aa88-90d129466fe3}, ! Handle
  Roof Insulation,                        ! Name
  MediumRough,                            ! Roughness
  0.124958,                               ! Thickness {m}
  0.049,                                  ! Conductivity {W/m-K}
  265,                                    ! Density {kg/m3}
  836.8,                                  ! Specific Heat {J/kg-K}
  0.9,                                    ! Thermal Absorptance
  0.7,                                    ! Solar Absorptance
  0.7;                                    ! Visible Absorptance

OS:ComponentCost:LineItem,
  {03bf6603-29a9-45f5-8256-ec7c417e4549}, ! Handle
  AEDG K12 Nonres 3A Roof IEAD,           ! Name
  ,                                       ! Type
  Construction,                           ! Line Item Type
  AEDG K12 Nonres 3A Roof IEAD,           ! Item Name
  ,                                       ! Object End Use Key
  ,                                       ! Quantity {dimensionless}
  98.49,                                  ! Material Cost {$}
  CostPerArea;                            ! Material Cost Units

