
OS:Version,
  {a8db7442-b3e5-4257-a5bb-6fea582d38e5}, ! Handle
  0.9.3;                                  ! Version Identifier

OS:ComponentCost:LineItem,
  {f180083e-7d47-4206-828e-a01c3c363118}, ! Handle
  90.1-1999 Res B18 Ext Wall Metal Building, ! Name
  ,                                       ! Type
  Construction,                           ! Line Item Type
  90.1-1999 Res B18 Ext Wall Metal Building, ! Item Name
  ,                                       ! Object End Use Key
  ,                                       ! Quantity {dimensionless}
  98.78,                                  ! Material Cost {$}
  CostPerArea;                            ! Material Cost Units

OS:Material,
  {46ff8e99-053f-4400-b222-e4d397f58350}, ! Handle
  Metal Siding,                           ! Name
  Smooth,                                 ! Roughness
  0.0015,                                 ! Thickness {m}
  44.96,                                  ! Conductivity {W/m-K}
  7688.86,                                ! Density {kg/m3}
  410,                                    ! Specific Heat {J/kg-K}
  0.9,                                    ! Thermal Absorptance
  0.2,                                    ! Solar Absorptance
  0.2;                                    ! Visible Absorptance

OS:Construction,
  {fe63bb72-75bb-4f6a-bcc0-4a14f34a7d4d}, ! Handle
  90.1-1999 Res B18 Ext Wall Metal Building, ! Name
  ,                                       ! Surface Rendering Name
  {46ff8e99-053f-4400-b222-e4d397f58350}, ! Layer 1
  {3f5d80ca-feb3-43cd-8eab-223d261710bd}, ! Layer 2
  {755346e5-108d-44c3-8ca4-09be7991e64a}; ! Layer 3

OS:Material,
  {3f5d80ca-feb3-43cd-8eab-223d261710bd}, ! Handle
  Wall Insulation,                        ! Name
  MediumRough,                            ! Roughness
  0.0598725,                              ! Thickness {m}
  0.045,                                  ! Conductivity {W/m-K}
  265,                                    ! Density {kg/m3}
  836.8,                                  ! Specific Heat {J/kg-K}
  0.9,                                    ! Thermal Absorptance
  0.7,                                    ! Solar Absorptance
  0.7;                                    ! Visible Absorptance

OS:Material,
  {755346e5-108d-44c3-8ca4-09be7991e64a}, ! Handle
  1/2IN Gypsum,                           ! Name
  Smooth,                                 ! Roughness
  0.01271,                                ! Thickness {m}
  0.16,                                   ! Conductivity {W/m-K}
  784.9,                                  ! Density {kg/m3}
  830,                                    ! Specific Heat {J/kg-K}
  0.9,                                    ! Thermal Absorptance
  0.92,                                   ! Solar Absorptance
  0.92;                                   ! Visible Absorptance

