
OS:Version,
  {ca5ce3d9-eebc-4626-a9e9-63b93a7d774d}, ! Handle
  0.9.3;                                  ! Version Identifier

OS:ComponentCost:LineItem,
  {256666e6-be9a-498d-b8ac-8ea96207a600}, ! Handle
  Title 24-2008 Nonres 2 Ext Wall Wood-Framed and Other, ! Name
  ,                                       ! Type
  Construction,                           ! Line Item Type
  Title 24-2008 Nonres 2 Ext Wall Wood-Framed and Other, ! Item Name
  ,                                       ! Object End Use Key
  ,                                       ! Quantity {dimensionless}
  140.526,                                ! Material Cost {$}
  CostPerArea;                            ! Material Cost Units

OS:Construction,
  {9a0776bb-aa2e-4717-b861-6bacd166a600}, ! Handle
  Title 24-2008 Nonres 2 Ext Wall Wood-Framed and Other, ! Name
  ,                                       ! Surface Rendering Name
  {58101b67-b06f-4ca3-a60a-2568e04978b4}, ! Layer 1
  {de52835f-eef2-42fc-8020-77508e683440}, ! Layer 2
  {90f19146-b996-4b46-9f8d-435a1395556b}; ! Layer 3

OS:Material,
  {58101b67-b06f-4ca3-a60a-2568e04978b4}, ! Handle
  Wood Siding,                            ! Name
  MediumSmooth,                           ! Roughness
  0.01,                                   ! Thickness {m}
  0.11,                                   ! Conductivity {W/m-K}
  544.62,                                 ! Density {kg/m3}
  1210,                                   ! Specific Heat {J/kg-K}
  0.9,                                    ! Thermal Absorptance
  0.78,                                   ! Solar Absorptance
  0.78;                                   ! Visible Absorptance

OS:Material,
  {de52835f-eef2-42fc-8020-77508e683440}, ! Handle
  Wall Insulation [159],                  ! Name
  MediumRough,                            ! Roughness
  0.0812,                                 ! Thickness {m}
  0.045,                                  ! Conductivity {W/m-K}
  265,                                    ! Density {kg/m3}
  836.8,                                  ! Specific Heat {J/kg-K}
  0.9,                                    ! Thermal Absorptance
  0.7,                                    ! Solar Absorptance
  0.7;                                    ! Visible Absorptance

OS:Material,
  {90f19146-b996-4b46-9f8d-435a1395556b}, ! Handle
  1/2IN Gypsum,                           ! Name
  Smooth,                                 ! Roughness
  0.01271,                                ! Thickness {m}
  0.16,                                   ! Conductivity {W/m-K}
  784.9,                                  ! Density {kg/m3}
  830,                                    ! Specific Heat {J/kg-K}
  0.9,                                    ! Thermal Absorptance
  0.92,                                   ! Solar Absorptance
  0.92;                                   ! Visible Absorptance

