
OS:Version,
  {8f4e36be-024f-4469-86d3-2c081dfe03fd}, ! Handle
  0.9.3;                                  ! Version Identifier

OS:Construction,
  {014fe699-1bdc-467b-bf69-005ef5295d72}, ! Handle
  90.1-2001 Res B18 Roof Attic and Other, ! Name
  ,                                       ! Surface Rendering Name
  {482781b2-289a-4c68-a440-4b24eed8d73a}, ! Layer 1
  {f6dbe4e3-78a7-4051-ab82-bd9bb35e64a4}, ! Layer 2
  {ca74a1b9-bc39-41b9-8d43-c09c49a56b98}, ! Layer 3
  {833d3462-92a7-4b29-af0b-0dc788ead24a}; ! Layer 4

OS:Material,
  {482781b2-289a-4c68-a440-4b24eed8d73a}, ! Handle
  Wood Shingles,                          ! Name
  VeryRough,                              ! Roughness
  0.0178,                                 ! Thickness {m}
  0.115,                                  ! Conductivity {W/m-K}
  513,                                    ! Density {kg/m3}
  1255,                                   ! Specific Heat {J/kg-K}
  0.9,                                    ! Thermal Absorptance
  0.78,                                   ! Solar Absorptance
  0.78;                                   ! Visible Absorptance

OS:Material,
  {f6dbe4e3-78a7-4051-ab82-bd9bb35e64a4}, ! Handle
  1IN Wood Decking,                       ! Name
  MediumSmooth,                           ! Roughness
  0.0254,                                 ! Thickness {m}
  0.1211,                                 ! Conductivity {W/m-K}
  593,                                    ! Density {kg/m3}
  2510,                                   ! Specific Heat {J/kg-K}
  0.9,                                    ! Thermal Absorptance
  0.78,                                   ! Solar Absorptance
  0.78;                                   ! Visible Absorptance

OS:Material,
  {ca74a1b9-bc39-41b9-8d43-c09c49a56b98}, ! Handle
  Roof Insulation [2],                    ! Name
  MediumRough,                            ! Roughness
  0.221604,                               ! Thickness {m}
  0.049,                                  ! Conductivity {W/m-K}
  265,                                    ! Density {kg/m3}
  836.8,                                  ! Specific Heat {J/kg-K}
  0.9,                                    ! Thermal Absorptance
  0.7,                                    ! Solar Absorptance
  0.7;                                    ! Visible Absorptance

OS:Material,
  {833d3462-92a7-4b29-af0b-0dc788ead24a}, ! Handle
  1/2IN Gypsum,                           ! Name
  Smooth,                                 ! Roughness
  0.01271,                                ! Thickness {m}
  0.16,                                   ! Conductivity {W/m-K}
  784.9,                                  ! Density {kg/m3}
  830,                                    ! Specific Heat {J/kg-K}
  0.9,                                    ! Thermal Absorptance
  0.92,                                   ! Solar Absorptance
  0.92;                                   ! Visible Absorptance

OS:ComponentCost:LineItem,
  {62fca3b7-ca42-4c74-a590-8533b23a202e}, ! Handle
  90.1-2001 Res B18 Roof Attic and Other, ! Name
  ,                                       ! Type
  Construction,                           ! Line Item Type
  90.1-2001 Res B18 Roof Attic and Other, ! Item Name
  ,                                       ! Object End Use Key
  ,                                       ! Quantity {dimensionless}
  33.39,                                  ! Material Cost {$}
  CostPerArea;                            ! Material Cost Units

OS:ComponentData,
  {0d92e43e-2626-40d7-9a9a-0a150dead391}, ! Handle
  Component Data 1,                       ! Name
  {5376a868-b084-4dce-8e68-4f0986a9acf2}, ! UUID
  {02309224-f092-44fb-bb08-cd2d6d82d84d}, ! Version UUID
  1363981557,                             ! Creation Timestamp
  1363981557,                             ! Version Timestamp
  {014fe699-1bdc-467b-bf69-005ef5295d72}, ! Name of Object 1
  {482781b2-289a-4c68-a440-4b24eed8d73a}, ! Name of Object 2
  {f6dbe4e3-78a7-4051-ab82-bd9bb35e64a4}, ! Name of Object 3
  {ca74a1b9-bc39-41b9-8d43-c09c49a56b98}, ! Name of Object 4
  {833d3462-92a7-4b29-af0b-0dc788ead24a}, ! Name of Object 5
  {62fca3b7-ca42-4c74-a590-8533b23a202e}; ! Name of Object 6

