
OS:Version,
  {bd21a8a1-d9b6-47a2-b166-bffcf6a15ab7}, ! Handle
  0.9.3;                                  ! Version Identifier

OS:Material,
  {d1e66f70-125e-4ddc-b24c-e658a11fbe4c}, ! Handle
  Wood Shingles,                          ! Name
  VeryRough,                              ! Roughness
  0.0178,                                 ! Thickness {m}
  0.115,                                  ! Conductivity {W/m-K}
  513,                                    ! Density {kg/m3}
  1255,                                   ! Specific Heat {J/kg-K}
  0.9,                                    ! Thermal Absorptance
  0.78,                                   ! Solar Absorptance
  0.78;                                   ! Visible Absorptance

OS:ComponentCost:LineItem,
  {ddeba015-b2fb-4612-8119-7bf731a80059}, ! Handle
  90.1-2001 Res B18 Roof Attic and Other, ! Name
  ,                                       ! Type
  Construction,                           ! Line Item Type
  90.1-2001 Res B18 Roof Attic and Other, ! Item Name
  ,                                       ! Object End Use Key
  ,                                       ! Quantity {dimensionless}
  33.39,                                  ! Material Cost {$}
  CostPerArea;                            ! Material Cost Units

OS:Construction,
  {ee68dc4b-94ae-4aa7-83a6-eedffb0a13aa}, ! Handle
  90.1-2001 Res B18 Roof Attic and Other, ! Name
  ,                                       ! Surface Rendering Name
  {d1e66f70-125e-4ddc-b24c-e658a11fbe4c}, ! Layer 1
  {288bd485-084e-4d9d-8781-0e6ac602bf30}, ! Layer 2
  {29af8f32-fa9a-4738-931e-85459bdc05d0}, ! Layer 3
  {c3f7bc7f-2cce-4a4a-b887-3477c29b6f05}; ! Layer 4

OS:Material,
  {288bd485-084e-4d9d-8781-0e6ac602bf30}, ! Handle
  1IN Wood Decking,                       ! Name
  MediumSmooth,                           ! Roughness
  0.0254,                                 ! Thickness {m}
  0.1211,                                 ! Conductivity {W/m-K}
  593,                                    ! Density {kg/m3}
  2510,                                   ! Specific Heat {J/kg-K}
  0.9,                                    ! Thermal Absorptance
  0.78,                                   ! Solar Absorptance
  0.78;                                   ! Visible Absorptance

OS:Material,
  {29af8f32-fa9a-4738-931e-85459bdc05d0}, ! Handle
  Roof Insulation [2],                    ! Name
  MediumRough,                            ! Roughness
  0.221604,                               ! Thickness {m}
  0.049,                                  ! Conductivity {W/m-K}
  265,                                    ! Density {kg/m3}
  836.8,                                  ! Specific Heat {J/kg-K}
  0.9,                                    ! Thermal Absorptance
  0.7,                                    ! Solar Absorptance
  0.7;                                    ! Visible Absorptance

OS:Material,
  {c3f7bc7f-2cce-4a4a-b887-3477c29b6f05}, ! Handle
  1/2IN Gypsum,                           ! Name
  Smooth,                                 ! Roughness
  0.01271,                                ! Thickness {m}
  0.16,                                   ! Conductivity {W/m-K}
  784.9,                                  ! Density {kg/m3}
  830,                                    ! Specific Heat {J/kg-K}
  0.9,                                    ! Thermal Absorptance
  0.92,                                   ! Solar Absorptance
  0.92;                                   ! Visible Absorptance

