
OS:Version,
  {bc658bd2-5dcb-4978-8755-6777444c0fe8}, ! Handle
  0.9.3;                                  ! Version Identifier

OS:Construction,
  {43c183f7-7e1c-4847-8f9d-5af3ad6161cf}, ! Handle
  90.1 Windows Window Fixed 2544 Vnl-ClrMpr-Std-ClrSue, ! Name
  ,                                       ! Surface Rendering Name
  {086205b2-43cc-4fec-a023-140646be5259}; ! Layer 1

OS:WindowMaterial:Glazing,
  {086205b2-43cc-4fec-a023-140646be5259}, ! Handle
  Theoretical Glass [480],                ! Name
  SpectralAverage,                        ! Optical Data Type
  ,                                       ! Window Glass Spectral Data Set Name
  0.003,                                  ! Thickness {m}
  0.266388,                               ! Solar Transmittance at Normal Incidence
  0.683612,                               ! Front Side Solar Reflectance at Normal Incidence
  0.683612,                               ! Back Side Solar Reflectance at Normal Incidence
  0.360158,                               ! Visible Transmittance at Normal Incidence
  0.589842,                               ! Front Side Visible Reflectance at Normal Incidence
  0.589842,                               ! Back Side Visible Reflectance at Normal Incidence
  0,                                      ! Infrared Transmittance at Normal Incidence
  0.9,                                    ! Front Side Infrared Hemispherical Emissivity
  0.9,                                    ! Back Side Infrared Hemispherical Emissivity
  0.00919137;                             ! Conductivity {W/m-K}

OS:ComponentCost:LineItem,
  {0c2079f7-9ac2-4732-a649-8838e20cca0a}, ! Handle
  90.1 Windows Window Fixed 2544 Vnl-ClrMpr-Std-ClrSue, ! Name
  ,                                       ! Type
  Construction,                           ! Line Item Type
  90.1 Windows Window Fixed 2544 Vnl-ClrMpr-Std-ClrSue, ! Item Name
  ,                                       ! Object End Use Key
  ,                                       ! Quantity {dimensionless}
  0,                                      ! Material Cost {$}
  CostPerArea;                            ! Material Cost Units

