
OS:Version,
  {44d9baec-d112-4389-8757-8f4f24717add}, ! Handle
  0.9.3;                                  ! Version Identifier

OS:Material,
  {b6211c97-c1b5-4b00-b57a-6d5bedbc799c}, ! Handle
  MAT-CC05 8 HW CONCRETE,                 ! Name
  Rough,                                  ! Roughness
  0.20321,                                ! Thickness {m}
  1.311,                                  ! Conductivity {W/m-K}
  2240,                                   ! Density {kg/m3}
  836.8,                                  ! Specific Heat {J/kg-K}
  0.9,                                    ! Thermal Absorptance
  0.7,                                    ! Solar Absorptance
  0.7;                                    ! Visible Absorptance

OS:Construction,
  {92aa2077-c450-4a18-902d-895e0b56c717}, ! Handle
  90.1-1999 Res B13 Ext Slab Unheated - 8in Slab without Carpet, ! Name
  ,                                       ! Surface Rendering Name
  {b6211c97-c1b5-4b00-b57a-6d5bedbc799c}; ! Layer 1

OS:ComponentCost:LineItem,
  {38b6e8b0-c7c4-42a4-b555-2b9f93f60bf7}, ! Handle
  90.1-1999 Res B13 Ext Slab Unheated - 8in Slab without Carpet, ! Name
  ,                                       ! Type
  Construction,                           ! Line Item Type
  90.1-1999 Res B13 Ext Slab Unheated - 8in Slab without Carpet, ! Item Name
  ,                                       ! Object End Use Key
  ,                                       ! Quantity {dimensionless}
  45.52,                                  ! Material Cost {$}
  CostPerArea;                            ! Material Cost Units

