
OS:Version,
  {cc6e2104-b553-4eab-af53-cf0671e0e9f3}, ! Handle
  0.9.3;                                  ! Version Identifier

OS:Construction,
  {b56dec50-9cbb-49fe-8ff5-17804b3fddf2}, ! Handle
  AEDG SHC Nonres 8A Ext Slab Unheated - 8in Slab with Carpet, ! Name
  ,                                       ! Surface Rendering Name
  {5832ad30-31da-4129-a50f-fed094ba35e4}, ! Layer 1
  {45d0ea2d-52eb-4ff9-b3ec-064e52ef1b5b}, ! Layer 2
  {10dce1f9-8f13-4c8c-8933-c1235f277e87}; ! Layer 3

OS:Material,
  {5832ad30-31da-4129-a50f-fed094ba35e4}, ! Handle
  Floor Insulation [16],                  ! Name
  MediumRough,                            ! Roughness
  0.00636355,                             ! Thickness {m}
  0.045,                                  ! Conductivity {W/m-K}
  265,                                    ! Density {kg/m3}
  836.8,                                  ! Specific Heat {J/kg-K}
  0.9,                                    ! Thermal Absorptance
  0.7,                                    ! Solar Absorptance
  0.7;                                    ! Visible Absorptance

OS:Material,
  {45d0ea2d-52eb-4ff9-b3ec-064e52ef1b5b}, ! Handle
  MAT-CC05 8 HW CONCRETE,                 ! Name
  Rough,                                  ! Roughness
  0.20321,                                ! Thickness {m}
  1.311,                                  ! Conductivity {W/m-K}
  2240,                                   ! Density {kg/m3}
  836.8,                                  ! Specific Heat {J/kg-K}
  0.9,                                    ! Thermal Absorptance
  0.7,                                    ! Solar Absorptance
  0.7;                                    ! Visible Absorptance

OS:Material:NoMass,
  {10dce1f9-8f13-4c8c-8933-c1235f277e87}, ! Handle
  CP02 CARPET PAD,                        ! Name
  VeryRough,                              ! Roughness
  0.21648,                                ! Thermal Resistance {m2-K/W}
  0.9,                                    ! Thermal Absorptance
  0.7,                                    ! Solar Absorptance
  0.8;                                    ! Visible Absorptance

OS:ComponentCost:LineItem,
  {e22bbeba-bfd4-4af8-9733-287cd629ffeb}, ! Handle
  AEDG SHC Nonres 8A Ext Slab Unheated - 8in Slab with Carpet, ! Name
  ,                                       ! Type
  Construction,                           ! Line Item Type
  AEDG SHC Nonres 8A Ext Slab Unheated - 8in Slab with Carpet, ! Item Name
  ,                                       ! Object End Use Key
  ,                                       ! Quantity {dimensionless}
  0,                                      ! Material Cost {$}
  CostPerArea;                            ! Material Cost Units

