
OS:Version,
  {0f4566fb-0852-406a-a4f1-beb43bc1a5c8}, ! Handle
  0.9.3;                                  ! Version Identifier

OS:Construction,
  {f18185f9-d1ee-470b-b2fa-53eac62778a4}, ! Handle
  90.1-2001 Res B5 Roof Attic and Other,  ! Name
  ,                                       ! Surface Rendering Name
  {b11f5495-06d7-426b-a00a-7df79dc5e538}, ! Layer 1
  {728f9c16-12d7-414e-b450-9fad5de94cce}, ! Layer 2
  {57b5df19-6e25-41f7-aebb-b1cf8e12227a}, ! Layer 3
  {893e185a-837f-4579-903b-9c06700c9a29}; ! Layer 4

OS:Material,
  {b11f5495-06d7-426b-a00a-7df79dc5e538}, ! Handle
  Wood Shingles,                          ! Name
  VeryRough,                              ! Roughness
  0.0178,                                 ! Thickness {m}
  0.115,                                  ! Conductivity {W/m-K}
  513,                                    ! Density {kg/m3}
  1255,                                   ! Specific Heat {J/kg-K}
  0.9,                                    ! Thermal Absorptance
  0.78,                                   ! Solar Absorptance
  0.78;                                   ! Visible Absorptance

OS:Material,
  {728f9c16-12d7-414e-b450-9fad5de94cce}, ! Handle
  1IN Wood Decking,                       ! Name
  MediumSmooth,                           ! Roughness
  0.0254,                                 ! Thickness {m}
  0.1211,                                 ! Conductivity {W/m-K}
  593,                                    ! Density {kg/m3}
  2510,                                   ! Specific Heat {J/kg-K}
  0.9,                                    ! Thermal Absorptance
  0.78,                                   ! Solar Absorptance
  0.78;                                   ! Visible Absorptance

OS:Material,
  {57b5df19-6e25-41f7-aebb-b1cf8e12227a}, ! Handle
  Roof Insulation [5],                    ! Name
  MediumRough,                            ! Roughness
  0.286906,                               ! Thickness {m}
  0.049,                                  ! Conductivity {W/m-K}
  265,                                    ! Density {kg/m3}
  836.8,                                  ! Specific Heat {J/kg-K}
  0.9,                                    ! Thermal Absorptance
  0.7,                                    ! Solar Absorptance
  0.7;                                    ! Visible Absorptance

OS:Material,
  {893e185a-837f-4579-903b-9c06700c9a29}, ! Handle
  1/2IN Gypsum,                           ! Name
  Smooth,                                 ! Roughness
  0.01271,                                ! Thickness {m}
  0.16,                                   ! Conductivity {W/m-K}
  784.9,                                  ! Density {kg/m3}
  830,                                    ! Specific Heat {J/kg-K}
  0.9,                                    ! Thermal Absorptance
  0.92,                                   ! Solar Absorptance
  0.92;                                   ! Visible Absorptance

OS:ComponentCost:LineItem,
  {2a7994cb-4e9c-461c-915f-dcb8805f3ae5}, ! Handle
  90.1-2001 Res B5 Roof Attic and Other,  ! Name
  ,                                       ! Type
  Construction,                           ! Line Item Type
  90.1-2001 Res B5 Roof Attic and Other,  ! Item Name
  ,                                       ! Object End Use Key
  ,                                       ! Quantity {dimensionless}
  34.757,                                 ! Material Cost {$}
  CostPerArea;                            ! Material Cost Units

OS:ComponentData,
  {3edb3a49-e042-47ba-87f5-384b17611dda}, ! Handle
  Component Data 1,                       ! Name
  {68207332-9158-46c0-a9ff-1bbc81c00202}, ! UUID
  {6b311cfc-0b9e-4208-b2dc-dd964cef7635}, ! Version UUID
  1363981470,                             ! Creation Timestamp
  1363981470,                             ! Version Timestamp
  {f18185f9-d1ee-470b-b2fa-53eac62778a4}, ! Name of Object 1
  {b11f5495-06d7-426b-a00a-7df79dc5e538}, ! Name of Object 2
  {728f9c16-12d7-414e-b450-9fad5de94cce}, ! Name of Object 3
  {57b5df19-6e25-41f7-aebb-b1cf8e12227a}, ! Name of Object 4
  {893e185a-837f-4579-903b-9c06700c9a29}, ! Name of Object 5
  {2a7994cb-4e9c-461c-915f-dcb8805f3ae5}; ! Name of Object 6

