
OS:Version,
  {25e37443-4166-4d20-ad1a-7418c5e01088}, ! Handle
  0.9.3;                                  ! Version Identifier

OS:Construction,
  {1e1693fc-baeb-4a70-862c-a58f509f2b5c}, ! Handle
  189.1-2009 Nonres 4B Ext Wall Mass,     ! Name
  ,                                       ! Surface Rendering Name
  {9d448c22-bdc0-4d61-86df-86bbf02b91bc}, ! Layer 1
  {9636ab93-df35-4f8f-84b9-7719793e1868}, ! Layer 2
  {ef538b4c-83eb-4db6-89ac-b79c0608d366}, ! Layer 3
  {e5f3237e-4bb3-4925-aba2-130c46a4eca0}; ! Layer 4

OS:Material,
  {9d448c22-bdc0-4d61-86df-86bbf02b91bc}, ! Handle
  1IN Stucco,                             ! Name
  Smooth,                                 ! Roughness
  0.0253,                                 ! Thickness {m}
  0.6918,                                 ! Conductivity {W/m-K}
  1858,                                   ! Density {kg/m3}
  837,                                    ! Specific Heat {J/kg-K}
  0.9,                                    ! Thermal Absorptance
  0.92,                                   ! Solar Absorptance
  0.92;                                   ! Visible Absorptance

OS:Material,
  {9636ab93-df35-4f8f-84b9-7719793e1868}, ! Handle
  8IN Concrete HW,                        ! Name
  MediumRough,                            ! Roughness
  0.2033,                                 ! Thickness {m}
  1.7296,                                 ! Conductivity {W/m-K}
  2243,                                   ! Density {kg/m3}
  837,                                    ! Specific Heat {J/kg-K}
  0.9,                                    ! Thermal Absorptance
  0.65,                                   ! Solar Absorptance
  0.65;                                   ! Visible Absorptance

OS:Material,
  {ef538b4c-83eb-4db6-89ac-b79c0608d366}, ! Handle
  Wall Insulation [37],                   ! Name
  MediumRough,                            ! Roughness
  0.0680962,                              ! Thickness {m}
  0.0432,                                 ! Conductivity {W/m-K}
  91,                                     ! Density {kg/m3}
  837,                                    ! Specific Heat {J/kg-K}
  0.9,                                    ! Thermal Absorptance
  0.5,                                    ! Solar Absorptance
  0.5;                                    ! Visible Absorptance

OS:Material,
  {e5f3237e-4bb3-4925-aba2-130c46a4eca0}, ! Handle
  1/2IN Gypsum,                           ! Name
  Smooth,                                 ! Roughness
  0.01271,                                ! Thickness {m}
  0.16,                                   ! Conductivity {W/m-K}
  784.9,                                  ! Density {kg/m3}
  830,                                    ! Specific Heat {J/kg-K}
  0.9,                                    ! Thermal Absorptance
  0.92,                                   ! Solar Absorptance
  0.92;                                   ! Visible Absorptance

OS:ComponentCost:LineItem,
  {e8e7ccee-7b34-4a68-b79d-3fd61892f461}, ! Handle
  189.1-2009 Nonres 4B Ext Wall Mass,     ! Name
  ,                                       ! Type
  Construction,                           ! Line Item Type
  189.1-2009 Nonres 4B Ext Wall Mass,     ! Item Name
  ,                                       ! Object End Use Key
  ,                                       ! Quantity {dimensionless}
  65.864,                                 ! Material Cost {$}
  CostPerArea;                            ! Material Cost Units

OS:ComponentData,
  {b1b84a8e-5113-4ed9-a52a-a4c87b868051}, ! Handle
  Component Data 1,                       ! Name
  {463f4625-114f-496d-9467-587634ffeac0}, ! UUID
  {01398dd9-294f-421d-b85c-4d903b62a6b2}, ! Version UUID
  1363980939,                             ! Creation Timestamp
  1363980939,                             ! Version Timestamp
  {1e1693fc-baeb-4a70-862c-a58f509f2b5c}, ! Name of Object 1
  {9d448c22-bdc0-4d61-86df-86bbf02b91bc}, ! Name of Object 2
  {9636ab93-df35-4f8f-84b9-7719793e1868}, ! Name of Object 3
  {ef538b4c-83eb-4db6-89ac-b79c0608d366}, ! Name of Object 4
  {e5f3237e-4bb3-4925-aba2-130c46a4eca0}, ! Name of Object 5
  {e8e7ccee-7b34-4a68-b79d-3fd61892f461}; ! Name of Object 6

