
OS:Version,
  {32045174-b7c3-4da3-b948-553dd748a2d1}, ! Handle
  0.9.3;                                  ! Version Identifier

OS:Construction,
  {2fdc057a-0375-4291-9877-e4b6f68b6cd5}, ! Handle
  189.1-2009 Nonres 4B Ext Wall Mass,     ! Name
  ,                                       ! Surface Rendering Name
  {4f396db0-2b49-40b7-9a2d-3af1a3128bb6}, ! Layer 1
  {0b356f72-2c03-4e16-9180-a3da04ebc2e3}, ! Layer 2
  {4820b45d-786f-44af-86ad-2ad1528a8658}, ! Layer 3
  {0c8c417e-a622-45f4-9778-32b9562abb3e}; ! Layer 4

OS:Material,
  {4f396db0-2b49-40b7-9a2d-3af1a3128bb6}, ! Handle
  1IN Stucco,                             ! Name
  Smooth,                                 ! Roughness
  0.0253,                                 ! Thickness {m}
  0.6918,                                 ! Conductivity {W/m-K}
  1858,                                   ! Density {kg/m3}
  837,                                    ! Specific Heat {J/kg-K}
  0.9,                                    ! Thermal Absorptance
  0.92,                                   ! Solar Absorptance
  0.92;                                   ! Visible Absorptance

OS:Material,
  {0b356f72-2c03-4e16-9180-a3da04ebc2e3}, ! Handle
  8IN Concrete HW,                        ! Name
  MediumRough,                            ! Roughness
  0.2033,                                 ! Thickness {m}
  1.7296,                                 ! Conductivity {W/m-K}
  2243,                                   ! Density {kg/m3}
  837,                                    ! Specific Heat {J/kg-K}
  0.9,                                    ! Thermal Absorptance
  0.65,                                   ! Solar Absorptance
  0.65;                                   ! Visible Absorptance

OS:Material,
  {4820b45d-786f-44af-86ad-2ad1528a8658}, ! Handle
  Wall Insulation [37],                   ! Name
  MediumRough,                            ! Roughness
  0.0680962,                              ! Thickness {m}
  0.0432,                                 ! Conductivity {W/m-K}
  91,                                     ! Density {kg/m3}
  837,                                    ! Specific Heat {J/kg-K}
  0.9,                                    ! Thermal Absorptance
  0.5,                                    ! Solar Absorptance
  0.5;                                    ! Visible Absorptance

OS:Material,
  {0c8c417e-a622-45f4-9778-32b9562abb3e}, ! Handle
  1/2IN Gypsum,                           ! Name
  Smooth,                                 ! Roughness
  0.01271,                                ! Thickness {m}
  0.16,                                   ! Conductivity {W/m-K}
  784.9,                                  ! Density {kg/m3}
  830,                                    ! Specific Heat {J/kg-K}
  0.9,                                    ! Thermal Absorptance
  0.92,                                   ! Solar Absorptance
  0.92;                                   ! Visible Absorptance

OS:ComponentCost:LineItem,
  {89a4a38a-50a0-4ae1-a771-9b7e090abd6c}, ! Handle
  189.1-2009 Nonres 4B Ext Wall Mass,     ! Name
  ,                                       ! Type
  Construction,                           ! Line Item Type
  189.1-2009 Nonres 4B Ext Wall Mass,     ! Item Name
  ,                                       ! Object End Use Key
  ,                                       ! Quantity {dimensionless}
  65.864,                                 ! Material Cost {$}
  CostPerArea;                            ! Material Cost Units

