
OS:Version,
  {96ab2a17-6945-49ba-a620-41318fa4c6cb}, ! Handle
  0.9.3;                                  ! Version Identifier

OS:Construction,
  {acd14199-07b7-4970-bbbb-0916f9d22be3}, ! Handle
  Title 24-2008 Nonres 1 Ext Slab Unheated - 4in Slab without Carpet, ! Name
  ,                                       ! Surface Rendering Name
  {ccf32613-186a-4dc3-bc8a-4cac9d0fc5c6}; ! Layer 1

OS:Material,
  {ccf32613-186a-4dc3-bc8a-4cac9d0fc5c6}, ! Handle
  MAT-CC05 4 HW CONCRETE,                 ! Name
  Rough,                                  ! Roughness
  0.1016,                                 ! Thickness {m}
  1.311,                                  ! Conductivity {W/m-K}
  2240,                                   ! Density {kg/m3}
  836.8,                                  ! Specific Heat {J/kg-K}
  0.9,                                    ! Thermal Absorptance
  0.7,                                    ! Solar Absorptance
  0.7;                                    ! Visible Absorptance

OS:ComponentCost:LineItem,
  {ee02ccd3-39f8-44ff-9199-fed7413bbec2}, ! Handle
  Title 24-2008 Nonres 1 Ext Slab Unheated - 4in Slab without Carpet, ! Name
  ,                                       ! Type
  Construction,                           ! Line Item Type
  Title 24-2008 Nonres 1 Ext Slab Unheated - 4in Slab without Carpet, ! Item Name
  ,                                       ! Object End Use Key
  ,                                       ! Quantity {dimensionless}
  45.52,                                  ! Material Cost {$}
  CostPerArea;                            ! Material Cost Units

