
OS:Version,
  {08ae849a-8782-4b35-b8d6-c05e25af73c8}, ! Handle
  0.9.3;                                  ! Version Identifier

OS:ComponentCost:LineItem,
  {8e51d736-95b3-4596-8a63-870752d31179}, ! Handle
  90.1-1999 Nonres B18 Int Wall,          ! Name
  ,                                       ! Type
  Construction,                           ! Line Item Type
  90.1-1999 Nonres B18 Int Wall,          ! Item Name
  ,                                       ! Object End Use Key
  ,                                       ! Quantity {dimensionless}
  0,                                      ! Material Cost {$}
  CostPerArea;                            ! Material Cost Units

OS:Material,
  {6347bf4f-501b-4bf8-bc68-2aa480951e41}, ! Handle
  GP01 1/2 GYPSUM,                        ! Name
  Smooth,                                 ! Roughness
  0.01271,                                ! Thickness {m}
  0.16,                                   ! Conductivity {W/m-K}
  800,                                    ! Density {kg/m3}
  1090,                                   ! Specific Heat {J/kg-K}
  0.9,                                    ! Thermal Absorptance
  0.7,                                    ! Solar Absorptance
  0.5;                                    ! Visible Absorptance

OS:Material,
  {4115ad6c-b94e-4f7a-a69a-0fae79daadeb}, ! Handle
  GP01 1/2 GYPSUM 1,                      ! Name
  Smooth,                                 ! Roughness
  0.01271,                                ! Thickness {m}
  0.16,                                   ! Conductivity {W/m-K}
  800,                                    ! Density {kg/m3}
  1090,                                   ! Specific Heat {J/kg-K}
  0.9,                                    ! Thermal Absorptance
  0.7,                                    ! Solar Absorptance
  0.5;                                    ! Visible Absorptance

OS:Construction,
  {87b6caf4-e1d7-44ee-85cf-3e912ad2c259}, ! Handle
  90.1-1999 Nonres B18 Int Wall,          ! Name
  ,                                       ! Surface Rendering Name
  {6347bf4f-501b-4bf8-bc68-2aa480951e41}, ! Layer 1
  {6347bf4f-501b-4bf8-bc68-2aa480951e41}; ! Layer 2

