
OS:Version,
  {d73d131b-fb7d-4385-be43-b7ad4c2df2e1}, ! Handle
  0.9.3;                                  ! Version Identifier

OS:Material,
  {d0561162-8411-43a3-a4fd-2482584bf218}, ! Handle
  Metal Decking,                          ! Name
  MediumSmooth,                           ! Roughness
  0.001524,                               ! Thickness {m}
  45.006,                                 ! Conductivity {W/m-K}
  7680,                                   ! Density {kg/m3}
  418.4,                                  ! Specific Heat {J/kg-K}
  0.9,                                    ! Thermal Absorptance
  0.7,                                    ! Solar Absorptance
  0.3;                                    ! Visible Absorptance

OS:Material,
  {af3b9b53-3252-4b67-ac95-c9b8dfc17ba5}, ! Handle
  Roof Insulation [7],                    ! Name
  MediumRough,                            ! Roughness
  0.167563,                               ! Thickness {m}
  0.049,                                  ! Conductivity {W/m-K}
  265,                                    ! Density {kg/m3}
  836.8,                                  ! Specific Heat {J/kg-K}
  0.9,                                    ! Thermal Absorptance
  0.7,                                    ! Solar Absorptance
  0.7;                                    ! Visible Absorptance

OS:Construction,
  {213638e6-a8a5-4fcd-b402-0eed5877e430}, ! Handle
  90.1-2004 Nonres 8A Roof IEAD,          ! Name
  ,                                       ! Surface Rendering Name
  {99b223ea-84e9-4ccd-b3fd-30307cb534b1}, ! Layer 1
  {af3b9b53-3252-4b67-ac95-c9b8dfc17ba5}, ! Layer 2
  {d0561162-8411-43a3-a4fd-2482584bf218}; ! Layer 3

OS:Material,
  {99b223ea-84e9-4ccd-b3fd-30307cb534b1}, ! Handle
  Roof Membrane,                          ! Name
  VeryRough,                              ! Roughness
  0.0095,                                 ! Thickness {m}
  0.16,                                   ! Conductivity {W/m-K}
  1121.29,                                ! Density {kg/m3}
  1460,                                   ! Specific Heat {J/kg-K}
  0.9,                                    ! Thermal Absorptance
  0.7,                                    ! Solar Absorptance
  0.7;                                    ! Visible Absorptance

OS:ComponentCost:LineItem,
  {13ebd37d-870d-4e20-84f3-31894fba560d}, ! Handle
  90.1-2004 Nonres 8A Roof IEAD,          ! Name
  ,                                       ! Type
  Construction,                           ! Line Item Type
  90.1-2004 Nonres 8A Roof IEAD,          ! Item Name
  ,                                       ! Object End Use Key
  ,                                       ! Quantity {dimensionless}
  52.896,                                 ! Material Cost {$}
  CostPerArea;                            ! Material Cost Units

