
OS:Version,
  {e0aa5995-d272-40b8-a1a3-6a1fbb4989d2}, ! Handle
  0.9.3;                                  ! Version Identifier

OS:Construction,
  {a401f41b-d1fd-40ed-bdb9-3c67c796b9c6}, ! Handle
  90.1 Constructions Attic Floor R-137.0, ! Name
  ,                                       ! Surface Rendering Name
  {0d5bf61a-3497-4bf4-a2d5-3db2a5b5c295}, ! Layer 1
  {ea226b08-e2e8-46f5-bd35-45b2b41a389f}, ! Layer 2
  {05d1eda3-0126-47cd-b1a7-c3c3aa74f8b8}, ! Layer 3
  {0105519f-1840-4f85-ac22-ef95261a9aa5}; ! Layer 4

OS:Material,
  {0d5bf61a-3497-4bf4-a2d5-3db2a5b5c295}, ! Handle
  1/2IN Gypsum Top,                       ! Name
  Smooth,                                 ! Roughness
  0.01271,                                ! Thickness {m}
  0.16,                                   ! Conductivity {W/m-K}
  784.9,                                  ! Density {kg/m3}
  830,                                    ! Specific Heat {J/kg-K}
  0.9,                                    ! Thermal Absorptance
  0.92,                                   ! Solar Absorptance
  0.92;                                   ! Visible Absorptance

OS:Material,
  {ea226b08-e2e8-46f5-bd35-45b2b41a389f}, ! Handle
  AtticFloor Insulation [43],             ! Name
  MediumRough,                            ! Roughness
  0.599516,                               ! Thickness {m}
  0.049,                                  ! Conductivity {W/m-K}
  265,                                    ! Density {kg/m3}
  836.8,                                  ! Specific Heat {J/kg-K}
  0.9,                                    ! Thermal Absorptance
  0.7,                                    ! Solar Absorptance
  0.7;                                    ! Visible Absorptance

OS:Material,
  {05d1eda3-0126-47cd-b1a7-c3c3aa74f8b8}, ! Handle
  AtticFloor Insulation 2,                ! Name
  MediumRough,                            ! Roughness
  0.5,                                    ! Thickness {m}
  0.049,                                  ! Conductivity {W/m-K}
  265,                                    ! Density {kg/m3}
  836.8,                                  ! Specific Heat {J/kg-K}
  0.9,                                    ! Thermal Absorptance
  0.7,                                    ! Solar Absorptance
  0.7;                                    ! Visible Absorptance

OS:Material,
  {0105519f-1840-4f85-ac22-ef95261a9aa5}, ! Handle
  1/2IN Gypsum Bottom,                    ! Name
  Smooth,                                 ! Roughness
  0.01271,                                ! Thickness {m}
  0.16,                                   ! Conductivity {W/m-K}
  784.9,                                  ! Density {kg/m3}
  830,                                    ! Specific Heat {J/kg-K}
  0.9,                                    ! Thermal Absorptance
  0.92,                                   ! Solar Absorptance
  0.92;                                   ! Visible Absorptance

