
OS:Version,
  {f3706722-49a3-4356-999c-b71bfaf1c0a2}, ! Handle
  0.9.3;                                  ! Version Identifier

OS:Material:NoMass,
  {5d26efdb-c26c-40ca-a33e-9a6a6d374f4d}, ! Handle
  CP02 CARPET PAD,                        ! Name
  VeryRough,                              ! Roughness
  0.21648,                                ! Thermal Resistance {m2-K/W}
  0.9,                                    ! Thermal Absorptance
  0.7,                                    ! Solar Absorptance
  0.8;                                    ! Visible Absorptance

OS:Construction,
  {d3aa2489-e217-40a8-b287-bdd34c6808e6}, ! Handle
  90.1-1999 Res B8 Ext Slab Unheated - 4in Slab with Carpet, ! Name
  ,                                       ! Surface Rendering Name
  {86a72262-d631-40b3-aa57-d9fd9c304ee3}, ! Layer 1
  {5d26efdb-c26c-40ca-a33e-9a6a6d374f4d}; ! Layer 2

OS:Material,
  {86a72262-d631-40b3-aa57-d9fd9c304ee3}, ! Handle
  MAT-CC05 4 HW CONCRETE,                 ! Name
  Rough,                                  ! Roughness
  0.1016,                                 ! Thickness {m}
  1.311,                                  ! Conductivity {W/m-K}
  2240,                                   ! Density {kg/m3}
  836.8,                                  ! Specific Heat {J/kg-K}
  0.9,                                    ! Thermal Absorptance
  0.7,                                    ! Solar Absorptance
  0.7;                                    ! Visible Absorptance

OS:ComponentCost:LineItem,
  {f11eca19-e1b5-4e1e-a7a9-01ceed5537ee}, ! Handle
  90.1-1999 Res B8 Ext Slab Unheated - 4in Slab with Carpet, ! Name
  ,                                       ! Type
  Construction,                           ! Line Item Type
  90.1-1999 Res B8 Ext Slab Unheated - 4in Slab with Carpet, ! Item Name
  ,                                       ! Object End Use Key
  ,                                       ! Quantity {dimensionless}
  45.52,                                  ! Material Cost {$}
  CostPerArea;                            ! Material Cost Units

