
OS:Version,
  {7c9ce38d-fb15-4417-97ec-98e240be6fdd}, !- Handle
  1.1.0;                                  !- Version Identifier

OS:Construction,
  {ba3d8447-011e-4b3c-84eb-36ae5b0b9bab}, !- Handle
  Trp LoE Film (77) Clr 3mm/13mm Air,     !- Name
  ,                                       !- Surface Rendering Name
  {aff8e11a-7757-4b22-8729-5cb983151e07}, !- Layer 1
  {5130c8e4-cee0-477e-8110-1bf042b24e32}, !- Layer 2
  {c8a123ee-66d8-44fc-aa11-ea44101a8082}, !- Layer 3
  {5130c8e4-cee0-477e-8110-1bf042b24e32}, !- Layer 4
  {aff8e11a-7757-4b22-8729-5cb983151e07}; !- Layer 5

OS:WindowMaterial:Glazing,
  {aff8e11a-7757-4b22-8729-5cb983151e07}, !- Handle
  CLEAR 3MM,                              !- Name
  SpectralAverage,                        !- Optical Data Type
  ,                                       !- Window Glass Spectral Data Set Name
  0.003,                                  !- Thickness {m}
  0.837,                                  !- Solar Transmittance at Normal Incidence
  0.075,                                  !- Front Side Solar Reflectance at Normal Incidence
  0.075,                                  !- Back Side Solar Reflectance at Normal Incidence
  0.898,                                  !- Visible Transmittance at Normal Incidence
  0.081,                                  !- Front Side Visible Reflectance at Normal Incidence
  0.081,                                  !- Back Side Visible Reflectance at Normal Incidence
  0,                                      !- Infrared Transmittance at Normal Incidence
  0.84,                                   !- Front Side Infrared Hemispherical Emissivity
  0.84,                                   !- Back Side Infrared Hemispherical Emissivity
  0.9;                                    !- Conductivity {W/m-K}

OS:WindowMaterial:Gas,
  {5130c8e4-cee0-477e-8110-1bf042b24e32}, !- Handle
  AIR 13MM,                               !- Name
  Air,                                    !- Gas Type
  0.0127;                                 !- Thickness {m}

OS:WindowMaterial:Glazing,
  {c8a123ee-66d8-44fc-aa11-ea44101a8082}, !- Handle
  COATED POLY-77,                         !- Name
  SpectralAverage,                        !- Optical Data Type
  ,                                       !- Window Glass Spectral Data Set Name
  0.00051,                                !- Thickness {m}
  0.504,                                  !- Solar Transmittance at Normal Incidence
  0.402,                                  !- Front Side Solar Reflectance at Normal Incidence
  0.398,                                  !- Back Side Solar Reflectance at Normal Incidence
  0.766,                                  !- Visible Transmittance at Normal Incidence
  0.147,                                  !- Front Side Visible Reflectance at Normal Incidence
  0.167,                                  !- Back Side Visible Reflectance at Normal Incidence
  0,                                      !- Infrared Transmittance at Normal Incidence
  0.075,                                  !- Front Side Infrared Hemispherical Emissivity
  0.72,                                   !- Back Side Infrared Hemispherical Emissivity
  0.14;                                   !- Conductivity {W/m-K}

