
OS:Version,
  {0ad0f895-3881-4738-ad3c-4dfb2012e0f0}, !- Handle
  1.0.6;                                  !- Version Identifier

OS:WindowMaterial:Glazing,
  {4e29b39f-a45c-4264-831c-d1dcdac4469e}, !- Handle
  189.1-2011 NONRES 3A METAL FRAMING ENTRANCE DOOR THEORETICAL GLAZING, !- Name
  SpectralAverage,                        !- Optical Data Type
  ,                                       !- Window Glass Spectral Data Set Name
  0.002,                                  !- Thickness {m}
  0.10958,                                !- Solar Transmittance at Normal Incidence
  0.47678,                                !- Front Side Solar Reflectance at Normal Incidence
  0.47678,                                !- Back Side Solar Reflectance at Normal Incidence
  0.10958,                                !- Visible Transmittance at Normal Incidence
  0.47678,                                !- Front Side Visible Reflectance at Normal Incidence
  0.47678,                                !- Back Side Visible Reflectance at Normal Incidence
  0,                                      !- Infrared Transmittance at Normal Incidence
  0.84,                                   !- Front Side Infrared Hemispherical Emissivity
  0.84,                                   !- Back Side Infrared Hemispherical Emissivity
  0.03798,                                !- Conductivity {W/m-K}
  1,                                      !- Dirt Correction Factor for Solar and Visible Transmittance
  No;                                     !- Solar Diffusing

OS:Construction,
  {505d8a03-5751-47eb-a944-c9ee9467ee95}, !- Handle
  189.1-2011 NONRES 3A METAL FRAMING ENTRANCE DOOR, !- Name
  ,                                       !- Surface Rendering Name
  {4e29b39f-a45c-4264-831c-d1dcdac4469e}; !- Layer 1

