
OS:Version,
  {5fbb7671-926d-48f6-a12f-12e0aa718cc3}, ! Handle
  0.9.3;                                  ! Version Identifier

OS:Construction,
  {fdadbd3f-9610-4ad5-8690-7d33004e87e3}, ! Handle
  90.1-1999 Nonres B3 Ext Slab Unheated - 8in Slab with Carpet, ! Name
  ,                                       ! Surface Rendering Name
  {643ea5b3-5d69-454b-9ea2-80dd095b0774}, ! Layer 1
  {cc4c0fcf-1d47-4eb5-8677-78649eec9e12}; ! Layer 2

OS:Material,
  {643ea5b3-5d69-454b-9ea2-80dd095b0774}, ! Handle
  MAT-CC05 8 HW CONCRETE,                 ! Name
  Rough,                                  ! Roughness
  0.20321,                                ! Thickness {m}
  1.311,                                  ! Conductivity {W/m-K}
  2240,                                   ! Density {kg/m3}
  836.8,                                  ! Specific Heat {J/kg-K}
  0.9,                                    ! Thermal Absorptance
  0.7,                                    ! Solar Absorptance
  0.7;                                    ! Visible Absorptance

OS:Material:NoMass,
  {cc4c0fcf-1d47-4eb5-8677-78649eec9e12}, ! Handle
  CP02 CARPET PAD,                        ! Name
  VeryRough,                              ! Roughness
  0.21648,                                ! Thermal Resistance {m2-K/W}
  0.9,                                    ! Thermal Absorptance
  0.7,                                    ! Solar Absorptance
  0.8;                                    ! Visible Absorptance

OS:ComponentCost:LineItem,
  {bf67be75-54d4-4261-abaa-e20e69bd6e84}, ! Handle
  90.1-1999 Nonres B3 Ext Slab Unheated - 8in Slab with Carpet, ! Name
  ,                                       ! Type
  Construction,                           ! Line Item Type
  90.1-1999 Nonres B3 Ext Slab Unheated - 8in Slab with Carpet, ! Item Name
  ,                                       ! Object End Use Key
  ,                                       ! Quantity {dimensionless}
  45.52,                                  ! Material Cost {$}
  CostPerArea;                            ! Material Cost Units

OS:ComponentData,
  {3c05a303-5d2e-4d76-9c69-f124d4d72032}, ! Handle
  Component Data 1,                       ! Name
  {c355c072-dd84-429a-a124-31eb025941eb}, ! UUID
  {81b50897-0313-47c8-889a-11f222589667}, ! Version UUID
  1363981048,                             ! Creation Timestamp
  1363981048,                             ! Version Timestamp
  {fdadbd3f-9610-4ad5-8690-7d33004e87e3}, ! Name of Object 1
  {643ea5b3-5d69-454b-9ea2-80dd095b0774}, ! Name of Object 2
  {cc4c0fcf-1d47-4eb5-8677-78649eec9e12}, ! Name of Object 3
  {bf67be75-54d4-4261-abaa-e20e69bd6e84}; ! Name of Object 4

