
OS:Version,
  {50ac6dfe-f121-4440-bbb7-889e9da88bd3}, ! Handle
  0.9.3;                                  ! Version Identifier

OS:Material:NoMass,
  {e313e3b4-0530-4ad8-b3f3-cc6b8e1cc795}, ! Handle
  CP02 CARPET PAD,                        ! Name
  VeryRough,                              ! Roughness
  0.21648,                                ! Thermal Resistance {m2-K/W}
  0.9,                                    ! Thermal Absorptance
  0.7,                                    ! Solar Absorptance
  0.8;                                    ! Visible Absorptance

OS:Construction,
  {d66933b3-904b-4444-875a-e730ec964b76}, ! Handle
  90.1-1999 Nonres B3 Ext Slab Unheated - 8in Slab with Carpet, ! Name
  ,                                       ! Surface Rendering Name
  {a1af5c37-df76-4753-a6c1-f13776801c78}, ! Layer 1
  {e313e3b4-0530-4ad8-b3f3-cc6b8e1cc795}; ! Layer 2

OS:Material,
  {a1af5c37-df76-4753-a6c1-f13776801c78}, ! Handle
  MAT-CC05 8 HW CONCRETE,                 ! Name
  Rough,                                  ! Roughness
  0.20321,                                ! Thickness {m}
  1.311,                                  ! Conductivity {W/m-K}
  2240,                                   ! Density {kg/m3}
  836.8,                                  ! Specific Heat {J/kg-K}
  0.9,                                    ! Thermal Absorptance
  0.7,                                    ! Solar Absorptance
  0.7;                                    ! Visible Absorptance

OS:ComponentCost:LineItem,
  {c987d172-5f8c-4335-a853-278724b09de8}, ! Handle
  90.1-1999 Nonres B3 Ext Slab Unheated - 8in Slab with Carpet, ! Name
  ,                                       ! Type
  Construction,                           ! Line Item Type
  90.1-1999 Nonres B3 Ext Slab Unheated - 8in Slab with Carpet, ! Item Name
  ,                                       ! Object End Use Key
  ,                                       ! Quantity {dimensionless}
  45.52,                                  ! Material Cost {$}
  CostPerArea;                            ! Material Cost Units

