
OS:Version,
  {8feb3ced-05f5-449b-bcb9-79b946a980c0}, ! Handle
  0.9.3;                                  ! Version Identifier

OS:Material,
  {b4571f69-deab-4b6e-bc16-2a9d526cd82d}, ! Handle
  1/2IN Gypsum Bottom,                    ! Name
  Smooth,                                 ! Roughness
  0.01271,                                ! Thickness {m}
  0.16,                                   ! Conductivity {W/m-K}
  784.9,                                  ! Density {kg/m3}
  830,                                    ! Specific Heat {J/kg-K}
  0.9,                                    ! Thermal Absorptance
  0.92,                                   ! Solar Absorptance
  0.92;                                   ! Visible Absorptance

OS:Material,
  {bc1fe984-5fb9-4983-a1ac-3932bec682bd}, ! Handle
  1/2IN Gypsum Top,                       ! Name
  Smooth,                                 ! Roughness
  0.01271,                                ! Thickness {m}
  0.16,                                   ! Conductivity {W/m-K}
  784.9,                                  ! Density {kg/m3}
  830,                                    ! Specific Heat {J/kg-K}
  0.9,                                    ! Thermal Absorptance
  0.92,                                   ! Solar Absorptance
  0.92;                                   ! Visible Absorptance

OS:Construction,
  {7f27afb1-0a5f-4cf5-ad76-25978c38cb40}, ! Handle
  189.1-2009 Res 1A Attic Floor,          ! Name
  ,                                       ! Surface Rendering Name
  {bc1fe984-5fb9-4983-a1ac-3932bec682bd}, ! Layer 1
  {6a23bb61-9677-47b3-8109-dabcb8340757}, ! Layer 2
  {b4571f69-deab-4b6e-bc16-2a9d526cd82d}; ! Layer 3

OS:Material,
  {6a23bb61-9677-47b3-8109-dabcb8340757}, ! Handle
  AtticFloor Insulation [4],              ! Name
  MediumRough,                            ! Roughness
  0.392234,                               ! Thickness {m}
  0.049,                                  ! Conductivity {W/m-K}
  265,                                    ! Density {kg/m3}
  836.8,                                  ! Specific Heat {J/kg-K}
  0.9,                                    ! Thermal Absorptance
  0.7,                                    ! Solar Absorptance
  0.7;                                    ! Visible Absorptance

OS:ComponentCost:LineItem,
  {44841fe7-345c-4f30-9464-36ea5bc9e868}, ! Handle
  189.1-2009 Res 1A Attic Floor,          ! Name
  ,                                       ! Type
  Construction,                           ! Line Item Type
  189.1-2009 Res 1A Attic Floor,          ! Item Name
  ,                                       ! Object End Use Key
  ,                                       ! Quantity {dimensionless}
  37.058,                                 ! Material Cost {$}
  CostPerArea;                            ! Material Cost Units

