
OS:Version,
  {9d0f5c64-6c71-46c0-a49b-909feef8b9d5}, ! Handle
  0.9.3;                                  ! Version Identifier

OS:WindowMaterial:Glazing,
  {4e48a6d5-5a33-4cc2-9764-3cea8a6844cb}, ! Handle
  Theoretical Glass [683],                ! Name
  SpectralAverage,                        ! Optical Data Type
  ,                                       ! Window Glass Spectral Data Set Name
  0.003,                                  ! Thickness {m}
  0.331198,                               ! Solar Transmittance at Normal Incidence
  0.618802,                               ! Front Side Solar Reflectance at Normal Incidence
  0.618802,                               ! Back Side Solar Reflectance at Normal Incidence
  0.34081,                                ! Visible Transmittance at Normal Incidence
  0.60919,                                ! Front Side Visible Reflectance at Normal Incidence
  0.60919,                                ! Back Side Visible Reflectance at Normal Incidence
  0,                                      ! Infrared Transmittance at Normal Incidence
  0.9,                                    ! Front Side Infrared Hemispherical Emissivity
  0.9,                                    ! Back Side Infrared Hemispherical Emissivity
  0.0406315;                              ! Conductivity {W/m-K}

OS:Construction,
  {0a0e0694-dbd2-43b8-885f-1a0589b3a725}, ! Handle
  Title 24-2008 Nonres 7 Window Fixed,    ! Name
  ,                                       ! Surface Rendering Name
  {4e48a6d5-5a33-4cc2-9764-3cea8a6844cb}; ! Layer 1

OS:ComponentCost:LineItem,
  {ec4c72a7-eca2-4cbd-8feb-239700bab5af}, ! Handle
  Title 24-2008 Nonres 7 Window Fixed,    ! Name
  ,                                       ! Type
  Construction,                           ! Line Item Type
  Title 24-2008 Nonres 7 Window Fixed,    ! Item Name
  ,                                       ! Object End Use Key
  ,                                       ! Quantity {dimensionless}
  523.103,                                ! Material Cost {$}
  CostPerArea;                            ! Material Cost Units

