
OS:Version,
  {d6749718-3671-4732-92d0-8d92b028bf3e}, ! Handle
  0.9.3;                                  ! Version Identifier

OS:Material,
  {9aceb606-7a3a-4284-a804-521718236cd4}, ! Handle
  Wall Insulation [44],                   ! Name
  MediumRough,                            ! Roughness
  0.110439,                               ! Thickness {m}
  0.0432,                                 ! Conductivity {W/m-K}
  91,                                     ! Density {kg/m3}
  837,                                    ! Specific Heat {J/kg-K}
  0.9,                                    ! Thermal Absorptance
  0.5,                                    ! Solar Absorptance
  0.5;                                    ! Visible Absorptance

OS:Construction,
  {95358a09-6d58-4783-8927-c68d41e67bca}, ! Handle
  189.1-2009 Nonres 7A Ext Wall Mass,     ! Name
  ,                                       ! Surface Rendering Name
  {9c306b79-2291-4b51-854e-f0a600dfa6ca}, ! Layer 1
  {1ce38136-e146-4ba5-b985-4e6172d23ae1}, ! Layer 2
  {9aceb606-7a3a-4284-a804-521718236cd4}, ! Layer 3
  {51d91845-54f6-4a93-9010-3277b55dd95f}; ! Layer 4

OS:Material,
  {9c306b79-2291-4b51-854e-f0a600dfa6ca}, ! Handle
  1IN Stucco,                             ! Name
  Smooth,                                 ! Roughness
  0.0253,                                 ! Thickness {m}
  0.6918,                                 ! Conductivity {W/m-K}
  1858,                                   ! Density {kg/m3}
  837,                                    ! Specific Heat {J/kg-K}
  0.9,                                    ! Thermal Absorptance
  0.92,                                   ! Solar Absorptance
  0.92;                                   ! Visible Absorptance

OS:Material,
  {1ce38136-e146-4ba5-b985-4e6172d23ae1}, ! Handle
  8IN Concrete HW,                        ! Name
  MediumRough,                            ! Roughness
  0.2033,                                 ! Thickness {m}
  1.7296,                                 ! Conductivity {W/m-K}
  2243,                                   ! Density {kg/m3}
  837,                                    ! Specific Heat {J/kg-K}
  0.9,                                    ! Thermal Absorptance
  0.65,                                   ! Solar Absorptance
  0.65;                                   ! Visible Absorptance

OS:Material,
  {51d91845-54f6-4a93-9010-3277b55dd95f}, ! Handle
  1/2IN Gypsum,                           ! Name
  Smooth,                                 ! Roughness
  0.01271,                                ! Thickness {m}
  0.16,                                   ! Conductivity {W/m-K}
  784.9,                                  ! Density {kg/m3}
  830,                                    ! Specific Heat {J/kg-K}
  0.9,                                    ! Thermal Absorptance
  0.92,                                   ! Solar Absorptance
  0.92;                                   ! Visible Absorptance

OS:ComponentCost:LineItem,
  {e421ac14-2080-45a9-bb14-1823481872e5}, ! Handle
  189.1-2009 Nonres 7A Ext Wall Mass,     ! Name
  ,                                       ! Type
  Construction,                           ! Line Item Type
  189.1-2009 Nonres 7A Ext Wall Mass,     ! Item Name
  ,                                       ! Object End Use Key
  ,                                       ! Quantity {dimensionless}
  75.386,                                 ! Material Cost {$}
  CostPerArea;                            ! Material Cost Units

