
OS:Version,
  {c5e4f887-2bf8-4c46-9325-2126a24009b5}, ! Handle
  0.9.3;                                  ! Version Identifier

OS:WindowMaterial:Glazing,
  {c84446fb-d417-4108-a2c0-4347de939583}, ! Handle
  Theoretical Glass [237],                ! Name
  SpectralAverage,                        ! Optical Data Type
  ,                                       ! Window Glass Spectral Data Set Name
  0.003,                                  ! Thickness {m}
  0.241279,                               ! Solar Transmittance at Normal Incidence
  0.708721,                               ! Front Side Solar Reflectance at Normal Incidence
  0.708721,                               ! Back Side Solar Reflectance at Normal Incidence
  0.629707,                               ! Visible Transmittance at Normal Incidence
  0.320293,                               ! Front Side Visible Reflectance at Normal Incidence
  0.320293,                               ! Back Side Visible Reflectance at Normal Incidence
  0,                                      ! Infrared Transmittance at Normal Incidence
  0.9,                                    ! Front Side Infrared Hemispherical Emissivity
  0.9,                                    ! Back Side Infrared Hemispherical Emissivity
  0.0123106;                              ! Conductivity {W/m-K}

OS:ComponentCost:LineItem,
  {8a2e07e8-7038-4f97-9c74-4609ade91f27}, ! Handle
  AEDG SHC Nonres 3A Window Fixed,        ! Name
  ,                                       ! Type
  Construction,                           ! Line Item Type
  AEDG SHC Nonres 3A Window Fixed,        ! Item Name
  ,                                       ! Object End Use Key
  ,                                       ! Quantity {dimensionless}
  0,                                      ! Material Cost {$}
  CostPerArea;                            ! Material Cost Units

OS:Construction,
  {4ce0002d-294e-4a6e-8a11-f8f4289e1469}, ! Handle
  AEDG SHC Nonres 3A Window Fixed,        ! Name
  ,                                       ! Surface Rendering Name
  {c84446fb-d417-4108-a2c0-4347de939583}; ! Layer 1

