
OS:Version,
  {65018c64-cdf4-45d1-b68f-4c19c68200da}, ! Handle
  0.9.3;                                  ! Version Identifier

OS:Material,
  {a888c65e-6cc4-427b-bbaa-653163c99624}, ! Handle
  MAT-CC05 8 HW CONCRETE,                 ! Name
  Rough,                                  ! Roughness
  0.20321,                                ! Thickness {m}
  1.311,                                  ! Conductivity {W/m-K}
  2240,                                   ! Density {kg/m3}
  836.8,                                  ! Specific Heat {J/kg-K}
  0.9,                                    ! Thermal Absorptance
  0.7,                                    ! Solar Absorptance
  0.7;                                    ! Visible Absorptance

OS:Construction,
  {d705053d-fdaf-4152-b997-0339e33b3b7a}, ! Handle
  Title 24-2008 Nonres 13 Ext Slab Unheated - 8in Slab with Carpet, ! Name
  ,                                       ! Surface Rendering Name
  {a888c65e-6cc4-427b-bbaa-653163c99624}, ! Layer 1
  {e6b931ba-dcf9-40e7-ac59-0a8749f552ce}; ! Layer 2

OS:Material:NoMass,
  {e6b931ba-dcf9-40e7-ac59-0a8749f552ce}, ! Handle
  CP02 CARPET PAD,                        ! Name
  VeryRough,                              ! Roughness
  0.21648,                                ! Thermal Resistance {m2-K/W}
  0.9,                                    ! Thermal Absorptance
  0.7,                                    ! Solar Absorptance
  0.8;                                    ! Visible Absorptance

OS:ComponentCost:LineItem,
  {a007aac0-866d-4447-bbbf-a1649d2e8739}, ! Handle
  Title 24-2008 Nonres 13 Ext Slab Unheated - 8in Slab with Carpet, ! Name
  ,                                       ! Type
  Construction,                           ! Line Item Type
  Title 24-2008 Nonres 13 Ext Slab Unheated - 8in Slab with Carpet, ! Item Name
  ,                                       ! Object End Use Key
  ,                                       ! Quantity {dimensionless}
  45.52,                                  ! Material Cost {$}
  CostPerArea;                            ! Material Cost Units

