
OS:Version,
  {7252b172-315b-47fb-b15e-161dcbac57f8}, ! Handle
  0.9.3;                                  ! Version Identifier

OS:Construction,
  {4ff9ccd8-5d83-42ef-b70f-8ca93896c0b3}, ! Handle
  90.1-2001 Nonres B24 Ext Wall Steel-Framed, ! Name
  ,                                       ! Surface Rendering Name
  {98513fa0-ed30-4a99-9d74-e337cfc1d09a}, ! Layer 1
  {85341a20-cb45-4318-97ad-a2fc31ca5e83}, ! Layer 2
  {8982e807-ef02-4887-bebe-053591592b8d}; ! Layer 3

OS:Material:NoMass,
  {98513fa0-ed30-4a99-9d74-e337cfc1d09a}, ! Handle
  MAT-SHEATH,                             ! Name
  Rough,                                  ! Roughness
  0.36256,                                ! Thermal Resistance {m2-K/W}
  0.9,                                    ! Thermal Absorptance
  0.7,                                    ! Solar Absorptance
  0.7;                                    ! Visible Absorptance

OS:Material,
  {85341a20-cb45-4318-97ad-a2fc31ca5e83}, ! Handle
  Wall Insulation [10],                   ! Name
  MediumRough,                            ! Roughness
  0.0971136,                              ! Thickness {m}
  0.045,                                  ! Conductivity {W/m-K}
  265,                                    ! Density {kg/m3}
  836.8,                                  ! Specific Heat {J/kg-K}
  0.9,                                    ! Thermal Absorptance
  0.7,                                    ! Solar Absorptance
  0.7;                                    ! Visible Absorptance

OS:Material,
  {8982e807-ef02-4887-bebe-053591592b8d}, ! Handle
  1/2IN Gypsum,                           ! Name
  Smooth,                                 ! Roughness
  0.01271,                                ! Thickness {m}
  0.16,                                   ! Conductivity {W/m-K}
  784.9,                                  ! Density {kg/m3}
  830,                                    ! Specific Heat {J/kg-K}
  0.9,                                    ! Thermal Absorptance
  0.92,                                   ! Solar Absorptance
  0.92;                                   ! Visible Absorptance

OS:ComponentCost:LineItem,
  {0fd461a2-cd34-4dcf-8319-482f224e33b6}, ! Handle
  90.1-2001 Nonres B24 Ext Wall Steel-Framed, ! Name
  ,                                       ! Type
  Construction,                           ! Line Item Type
  90.1-2001 Nonres B24 Ext Wall Steel-Framed, ! Item Name
  ,                                       ! Object End Use Key
  ,                                       ! Quantity {dimensionless}
  94.657,                                 ! Material Cost {$}
  CostPerArea;                            ! Material Cost Units

OS:ComponentData,
  {42f06048-2d1b-40ab-86a8-da263d3b9f15}, ! Handle
  Component Data 1,                       ! Name
  {68bc74e6-e81a-415d-a91f-9b31d76eaeae}, ! UUID
  {ad67f3f9-d783-430b-b5a3-e6cb177c32f7}, ! Version UUID
  1363981425,                             ! Creation Timestamp
  1363981425,                             ! Version Timestamp
  {4ff9ccd8-5d83-42ef-b70f-8ca93896c0b3}, ! Name of Object 1
  {98513fa0-ed30-4a99-9d74-e337cfc1d09a}, ! Name of Object 2
  {85341a20-cb45-4318-97ad-a2fc31ca5e83}, ! Name of Object 3
  {8982e807-ef02-4887-bebe-053591592b8d}, ! Name of Object 4
  {0fd461a2-cd34-4dcf-8319-482f224e33b6}; ! Name of Object 5

