
OS:Version,
  {45bfb0aa-24f6-4d0a-b5dd-6b8af9fdfd40}, ! Handle
  0.9.3;                                  ! Version Identifier

OS:Material:NoMass,
  {107e3a93-a78c-4515-958f-2839bfb081dd}, ! Handle
  MAT-SHEATH,                             ! Name
  Rough,                                  ! Roughness
  0.36256,                                ! Thermal Resistance {m2-K/W}
  0.9,                                    ! Thermal Absorptance
  0.7,                                    ! Solar Absorptance
  0.7;                                    ! Visible Absorptance

OS:Construction,
  {f16d3930-56b4-4858-b245-fa98e94fc6e7}, ! Handle
  90.1-2001 Nonres B24 Ext Wall Steel-Framed, ! Name
  ,                                       ! Surface Rendering Name
  {107e3a93-a78c-4515-958f-2839bfb081dd}, ! Layer 1
  {6a8deef2-3a12-4497-905e-36626a9d4ae1}, ! Layer 2
  {2be941aa-b421-44b5-8c12-3ffcc3e29633}; ! Layer 3

OS:Material,
  {6a8deef2-3a12-4497-905e-36626a9d4ae1}, ! Handle
  Wall Insulation [10],                   ! Name
  MediumRough,                            ! Roughness
  0.0971136,                              ! Thickness {m}
  0.045,                                  ! Conductivity {W/m-K}
  265,                                    ! Density {kg/m3}
  836.8,                                  ! Specific Heat {J/kg-K}
  0.9,                                    ! Thermal Absorptance
  0.7,                                    ! Solar Absorptance
  0.7;                                    ! Visible Absorptance

OS:Material,
  {2be941aa-b421-44b5-8c12-3ffcc3e29633}, ! Handle
  1/2IN Gypsum,                           ! Name
  Smooth,                                 ! Roughness
  0.01271,                                ! Thickness {m}
  0.16,                                   ! Conductivity {W/m-K}
  784.9,                                  ! Density {kg/m3}
  830,                                    ! Specific Heat {J/kg-K}
  0.9,                                    ! Thermal Absorptance
  0.92,                                   ! Solar Absorptance
  0.92;                                   ! Visible Absorptance

OS:ComponentCost:LineItem,
  {77b1a23a-d5c6-42d6-b7da-3a9812ae40c5}, ! Handle
  90.1-2001 Nonres B24 Ext Wall Steel-Framed, ! Name
  ,                                       ! Type
  Construction,                           ! Line Item Type
  90.1-2001 Nonres B24 Ext Wall Steel-Framed, ! Item Name
  ,                                       ! Object End Use Key
  ,                                       ! Quantity {dimensionless}
  94.657,                                 ! Material Cost {$}
  CostPerArea;                            ! Material Cost Units

