
OS:Version,
  {5c1358d7-6ff8-4277-a622-164e4ffa90ff}, ! Handle
  0.9.3;                                  ! Version Identifier

OS:Material,
  {422ffd5f-0a73-48b9-aafe-42ef6b89f0ab}, ! Handle
  Wood Shingles,                          ! Name
  VeryRough,                              ! Roughness
  0.0178,                                 ! Thickness {m}
  0.115,                                  ! Conductivity {W/m-K}
  513,                                    ! Density {kg/m3}
  1255,                                   ! Specific Heat {J/kg-K}
  0.9,                                    ! Thermal Absorptance
  0.78,                                   ! Solar Absorptance
  0.78;                                   ! Visible Absorptance

OS:Material,
  {4b26f75e-cac3-4dbd-bb60-340bbddfbdd0}, ! Handle
  Roof Insulation [5],                    ! Name
  MediumRough,                            ! Roughness
  0.286906,                               ! Thickness {m}
  0.049,                                  ! Conductivity {W/m-K}
  265,                                    ! Density {kg/m3}
  836.8,                                  ! Specific Heat {J/kg-K}
  0.9,                                    ! Thermal Absorptance
  0.7,                                    ! Solar Absorptance
  0.7;                                    ! Visible Absorptance

OS:Construction,
  {b33538cc-00a7-4a04-8088-e3788f5decce}, ! Handle
  90.1-2007 Nonres 2A Roof Attic and Other, ! Name
  ,                                       ! Surface Rendering Name
  {422ffd5f-0a73-48b9-aafe-42ef6b89f0ab}, ! Layer 1
  {6576c740-2bec-4b18-b84b-71da21cc0b74}, ! Layer 2
  {4b26f75e-cac3-4dbd-bb60-340bbddfbdd0}, ! Layer 3
  {364ed84a-a6b3-4f30-9861-e3518e9e5c90}; ! Layer 4

OS:Material,
  {6576c740-2bec-4b18-b84b-71da21cc0b74}, ! Handle
  1IN Wood Decking,                       ! Name
  MediumSmooth,                           ! Roughness
  0.0254,                                 ! Thickness {m}
  0.1211,                                 ! Conductivity {W/m-K}
  593,                                    ! Density {kg/m3}
  2510,                                   ! Specific Heat {J/kg-K}
  0.9,                                    ! Thermal Absorptance
  0.78,                                   ! Solar Absorptance
  0.78;                                   ! Visible Absorptance

OS:Material,
  {364ed84a-a6b3-4f30-9861-e3518e9e5c90}, ! Handle
  1/2IN Gypsum,                           ! Name
  Smooth,                                 ! Roughness
  0.01271,                                ! Thickness {m}
  0.16,                                   ! Conductivity {W/m-K}
  784.9,                                  ! Density {kg/m3}
  830,                                    ! Specific Heat {J/kg-K}
  0.9,                                    ! Thermal Absorptance
  0.92,                                   ! Solar Absorptance
  0.92;                                   ! Visible Absorptance

OS:ComponentCost:LineItem,
  {5941631c-9e79-43c1-80ff-be718f61e361}, ! Handle
  90.1-2007 Nonres 2A Roof Attic and Other, ! Name
  ,                                       ! Type
  Construction,                           ! Line Item Type
  90.1-2007 Nonres 2A Roof Attic and Other, ! Item Name
  ,                                       ! Object End Use Key
  ,                                       ! Quantity {dimensionless}
  34.757,                                 ! Material Cost {$}
  CostPerArea;                            ! Material Cost Units

