
OS:Version,
  {97c456c6-91a0-420c-82ee-3dfc2709ec39}, ! Handle
  0.9.3;                                  ! Version Identifier

OS:Construction,
  {c64cc000-ae58-4e9a-a1f6-6aa71d2f391e}, ! Handle
  90.1-2007 Nonres 7A Roof Metal Building, ! Name
  ,                                       ! Surface Rendering Name
  {701b6c07-8e1d-42cf-9686-b04900fd7946}, ! Layer 1
  {c76b0446-e5ac-4da8-9273-109b0ea14a0f}; ! Layer 2

OS:Material,
  {701b6c07-8e1d-42cf-9686-b04900fd7946}, ! Handle
  Metal Roofing,                          ! Name
  MediumSmooth,                           ! Roughness
  0.001524,                               ! Thickness {m}
  45.006,                                 ! Conductivity {W/m-K}
  7680,                                   ! Density {kg/m3}
  418.4,                                  ! Specific Heat {J/kg-K}
  0.9,                                    ! Thermal Absorptance
  0.7,                                    ! Solar Absorptance
  0.3;                                    ! Visible Absorptance

OS:Material,
  {c76b0446-e5ac-4da8-9273-109b0ea14a0f}, ! Handle
  Roof Insulation [15],                   ! Name
  MediumRough,                            ! Roughness
  0.123565,                               ! Thickness {m}
  0.049,                                  ! Conductivity {W/m-K}
  265,                                    ! Density {kg/m3}
  836.8,                                  ! Specific Heat {J/kg-K}
  0.9,                                    ! Thermal Absorptance
  0.7,                                    ! Solar Absorptance
  0.7;                                    ! Visible Absorptance

OS:ComponentCost:LineItem,
  {ee26ba73-2a37-48ac-972e-9b86900b43ac}, ! Handle
  90.1-2007 Nonres 7A Roof Metal Building, ! Name
  ,                                       ! Type
  Construction,                           ! Line Item Type
  90.1-2007 Nonres 7A Roof Metal Building, ! Item Name
  ,                                       ! Object End Use Key
  ,                                       ! Quantity {dimensionless}
  38.21,                                  ! Material Cost {$}
  CostPerArea;                            ! Material Cost Units

OS:ComponentData,
  {bb985ae5-67a7-46a6-b342-208f0b109e2c}, ! Handle
  Component Data 1,                       ! Name
  {47576fe1-a347-41d6-8a4a-1179b5958f19}, ! UUID
  {f8bca4e1-8f30-42a0-8b51-110e0397c70c}, ! Version UUID
  1363981817,                             ! Creation Timestamp
  1363981817,                             ! Version Timestamp
  {c64cc000-ae58-4e9a-a1f6-6aa71d2f391e}, ! Name of Object 1
  {701b6c07-8e1d-42cf-9686-b04900fd7946}, ! Name of Object 2
  {c76b0446-e5ac-4da8-9273-109b0ea14a0f}, ! Name of Object 3
  {ee26ba73-2a37-48ac-972e-9b86900b43ac}; ! Name of Object 4

