
OS:Version,
  {cebfe55b-d9f8-42dd-a888-1c22887c3b9b}, ! Handle
  0.9.3;                                  ! Version Identifier

OS:Material,
  {a8df9dd4-282e-477c-90f8-79d7f36ed4b0}, ! Handle
  Wood Siding,                            ! Name
  MediumSmooth,                           ! Roughness
  0.01,                                   ! Thickness {m}
  0.11,                                   ! Conductivity {W/m-K}
  544.62,                                 ! Density {kg/m3}
  1210,                                   ! Specific Heat {J/kg-K}
  0.9,                                    ! Thermal Absorptance
  0.78,                                   ! Solar Absorptance
  0.78;                                   ! Visible Absorptance

OS:Material,
  {26fc1f7b-f550-417f-9960-49bebbaeac98}, ! Handle
  1/2IN Gypsum,                           ! Name
  Smooth,                                 ! Roughness
  0.01271,                                ! Thickness {m}
  0.16,                                   ! Conductivity {W/m-K}
  784.9,                                  ! Density {kg/m3}
  830,                                    ! Specific Heat {J/kg-K}
  0.9,                                    ! Thermal Absorptance
  0.92,                                   ! Solar Absorptance
  0.92;                                   ! Visible Absorptance

OS:Material,
  {4134df85-5a5b-41ce-9e1f-a8339bdcb971}, ! Handle
  Wall Insulation [2],                    ! Name
  MediumRough,                            ! Roughness
  0.0746874,                              ! Thickness {m}
  0.045,                                  ! Conductivity {W/m-K}
  265,                                    ! Density {kg/m3}
  836.8,                                  ! Specific Heat {J/kg-K}
  0.9,                                    ! Thermal Absorptance
  0.7,                                    ! Solar Absorptance
  0.7;                                    ! Visible Absorptance

OS:ComponentCost:LineItem,
  {2954fec9-e43f-4980-aa9a-62d11f54499c}, ! Handle
  90.1-1999 Nonres B18 Ext Wall Wood-Framed and Other, ! Name
  ,                                       ! Type
  Construction,                           ! Line Item Type
  90.1-1999 Nonres B18 Ext Wall Wood-Framed and Other, ! Item Name
  ,                                       ! Object End Use Key
  ,                                       ! Quantity {dimensionless}
  73.056,                                 ! Material Cost {$}
  CostPerArea;                            ! Material Cost Units

OS:Construction,
  {78c56741-3094-4b81-ac88-7a6a3677a978}, ! Handle
  90.1-1999 Nonres B18 Ext Wall Wood-Framed and Other, ! Name
  ,                                       ! Surface Rendering Name
  {a8df9dd4-282e-477c-90f8-79d7f36ed4b0}, ! Layer 1
  {4134df85-5a5b-41ce-9e1f-a8339bdcb971}, ! Layer 2
  {26fc1f7b-f550-417f-9960-49bebbaeac98}; ! Layer 3

