
OS:Version,
  {60364d56-7b8f-4499-aa91-2a2b0e50b0eb}, ! Handle
  0.9.3;                                  ! Version Identifier

OS:Construction,
  {ddb3140d-2f2f-4dae-bba0-7713c963f859}, ! Handle
  90.1-2004 Res 2A Ext Slab Unheated - 8in Slab without Carpet, ! Name
  ,                                       ! Surface Rendering Name
  {f4dbe8bc-2dbe-419b-9f73-97620b687223}; ! Layer 1

OS:Material,
  {f4dbe8bc-2dbe-419b-9f73-97620b687223}, ! Handle
  MAT-CC05 8 HW CONCRETE,                 ! Name
  Rough,                                  ! Roughness
  0.20321,                                ! Thickness {m}
  1.311,                                  ! Conductivity {W/m-K}
  2240,                                   ! Density {kg/m3}
  836.8,                                  ! Specific Heat {J/kg-K}
  0.9,                                    ! Thermal Absorptance
  0.7,                                    ! Solar Absorptance
  0.7;                                    ! Visible Absorptance

OS:ComponentCost:LineItem,
  {7a547ff5-1d54-4721-ac9d-b24c6713d30c}, ! Handle
  90.1-2004 Res 2A Ext Slab Unheated - 8in Slab without Carpet, ! Name
  ,                                       ! Type
  Construction,                           ! Line Item Type
  90.1-2004 Res 2A Ext Slab Unheated - 8in Slab without Carpet, ! Item Name
  ,                                       ! Object End Use Key
  ,                                       ! Quantity {dimensionless}
  45.52,                                  ! Material Cost {$}
  CostPerArea;                            ! Material Cost Units

OS:ComponentData,
  {56089dc0-3b43-4ab7-9565-4366690f5cf3}, ! Handle
  Component Data 1,                       ! Name
  {513c620a-3e6e-4f3f-93ff-3492f1054d0b}, ! UUID
  {4b1500c0-6c4a-40a8-92cf-5edf10261b94}, ! Version UUID
  1363981718,                             ! Creation Timestamp
  1363981718,                             ! Version Timestamp
  {ddb3140d-2f2f-4dae-bba0-7713c963f859}, ! Name of Object 1
  {f4dbe8bc-2dbe-419b-9f73-97620b687223}, ! Name of Object 2
  {7a547ff5-1d54-4721-ac9d-b24c6713d30c}; ! Name of Object 3

