
OS:Version,
  {b4bf7b0b-7d24-4a1c-baec-4642ab4fcea5}, ! Handle
  0.9.3;                                  ! Version Identifier

OS:Material,
  {403f3a64-3aea-43bb-873e-684f7c0e5b05}, ! Handle
  MAT-CC05 8 HW CONCRETE,                 ! Name
  Rough,                                  ! Roughness
  0.20321,                                ! Thickness {m}
  1.311,                                  ! Conductivity {W/m-K}
  2240,                                   ! Density {kg/m3}
  836.8,                                  ! Specific Heat {J/kg-K}
  0.9,                                    ! Thermal Absorptance
  0.7,                                    ! Solar Absorptance
  0.7;                                    ! Visible Absorptance

OS:Construction,
  {14ac4ec3-3633-43ef-9ae9-e849a1eb7d33}, ! Handle
  90.1-2004 Res 2A Ext Slab Unheated - 8in Slab without Carpet, ! Name
  ,                                       ! Surface Rendering Name
  {403f3a64-3aea-43bb-873e-684f7c0e5b05}; ! Layer 1

OS:ComponentCost:LineItem,
  {9237547d-2c5e-462d-9d9d-a3b4bb27b9d6}, ! Handle
  90.1-2004 Res 2A Ext Slab Unheated - 8in Slab without Carpet, ! Name
  ,                                       ! Type
  Construction,                           ! Line Item Type
  90.1-2004 Res 2A Ext Slab Unheated - 8in Slab without Carpet, ! Item Name
  ,                                       ! Object End Use Key
  ,                                       ! Quantity {dimensionless}
  45.52,                                  ! Material Cost {$}
  CostPerArea;                            ! Material Cost Units

