
OS:Version,
  {0e0c3963-45ad-4ae1-8800-78c51cdab901}, ! Handle
  0.9.3;                                  ! Version Identifier

OS:WindowMaterial:Glazing,
  {92d25245-f4ec-451a-bb9f-ad40c119c62f}, ! Handle
  Theoretical Glass [208],                ! Name
  SpectralAverage,                        ! Optical Data Type
  ,                                       ! Window Glass Spectral Data Set Name
  0.003,                                  ! Thickness {m}
  0.301483,                               ! Solar Transmittance at Normal Incidence
  0.648517,                               ! Front Side Solar Reflectance at Normal Incidence
  0.648517,                               ! Back Side Solar Reflectance at Normal Incidence
  0.406142,                               ! Visible Transmittance at Normal Incidence
  0.543858,                               ! Front Side Visible Reflectance at Normal Incidence
  0.543858,                               ! Back Side Visible Reflectance at Normal Incidence
  0,                                      ! Infrared Transmittance at Normal Incidence
  0.9,                                    ! Front Side Infrared Hemispherical Emissivity
  0.9,                                    ! Back Side Infrared Hemispherical Emissivity
  0.0133144;                              ! Conductivity {W/m-K}

OS:Construction,
  {66609d6c-e81c-4bf2-acf7-27404796addc}, ! Handle
  189.1-2009 Nonres 4B Skylight without Curb, ! Name
  ,                                       ! Surface Rendering Name
  {92d25245-f4ec-451a-bb9f-ad40c119c62f}; ! Layer 1

OS:ComponentCost:LineItem,
  {f803ed2e-3bbf-46c6-83ca-1bd3be8ef4bf}, ! Handle
  189.1-2009 Nonres 4B Skylight without Curb, ! Name
  ,                                       ! Type
  Construction,                           ! Line Item Type
  189.1-2009 Nonres 4B Skylight without Curb, ! Item Name
  ,                                       ! Object End Use Key
  ,                                       ! Quantity {dimensionless}
  614.348,                                ! Material Cost {$}
  CostPerArea;                            ! Material Cost Units

