
OS:Version,
  {1e571b79-a025-4348-b40b-f714f1a8a20a}, ! Handle
  0.9.3;                                  ! Version Identifier

OS:Construction,
  {503b8815-2f76-438a-970b-794d9406140b}, ! Handle
  189.1-2009 Nonres 4B Skylight without Curb, ! Name
  ,                                       ! Surface Rendering Name
  {ec044978-7ffd-485c-9722-b48869f2a742}; ! Layer 1

OS:WindowMaterial:Glazing,
  {ec044978-7ffd-485c-9722-b48869f2a742}, ! Handle
  Theoretical Glass [208],                ! Name
  SpectralAverage,                        ! Optical Data Type
  ,                                       ! Window Glass Spectral Data Set Name
  0.003,                                  ! Thickness {m}
  0.301483,                               ! Solar Transmittance at Normal Incidence
  0.648517,                               ! Front Side Solar Reflectance at Normal Incidence
  0.648517,                               ! Back Side Solar Reflectance at Normal Incidence
  0.406142,                               ! Visible Transmittance at Normal Incidence
  0.543858,                               ! Front Side Visible Reflectance at Normal Incidence
  0.543858,                               ! Back Side Visible Reflectance at Normal Incidence
  0,                                      ! Infrared Transmittance at Normal Incidence
  0.9,                                    ! Front Side Infrared Hemispherical Emissivity
  0.9,                                    ! Back Side Infrared Hemispherical Emissivity
  0.0133144;                              ! Conductivity {W/m-K}

OS:ComponentCost:LineItem,
  {738f73d7-8f83-42c1-af62-b9abc2e3bef8}, ! Handle
  189.1-2009 Nonres 4B Skylight without Curb, ! Name
  ,                                       ! Type
  Construction,                           ! Line Item Type
  189.1-2009 Nonres 4B Skylight without Curb, ! Item Name
  ,                                       ! Object End Use Key
  ,                                       ! Quantity {dimensionless}
  614.348,                                ! Material Cost {$}
  CostPerArea;                            ! Material Cost Units

OS:ComponentData,
  {0f0371c9-4066-4d5e-aec4-e026f6d65576}, ! Handle
  Component Data 1,                       ! Name
  {6513eda3-5b5f-4e68-bff5-03dfc519e142}, ! UUID
  {2bfa6875-32e7-4a36-bda8-fc97378ff759}, ! Version UUID
  1363980942,                             ! Creation Timestamp
  1363980942,                             ! Version Timestamp
  {503b8815-2f76-438a-970b-794d9406140b}, ! Name of Object 1
  {ec044978-7ffd-485c-9722-b48869f2a742}, ! Name of Object 2
  {738f73d7-8f83-42c1-af62-b9abc2e3bef8}; ! Name of Object 3

