
OS:Version,
  {9e34d872-3cb6-4c88-801f-f8fce75c2455}, ! Handle
  0.9.3;                                  ! Version Identifier

OS:Material,
  {f5959e65-cfb5-4719-9248-f583bc905eb8}, ! Handle
  MAT-CC05 4 HW CONCRETE,                 ! Name
  Rough,                                  ! Roughness
  0.1016,                                 ! Thickness {m}
  1.311,                                  ! Conductivity {W/m-K}
  2240,                                   ! Density {kg/m3}
  836.8,                                  ! Specific Heat {J/kg-K}
  0.9,                                    ! Thermal Absorptance
  0.7,                                    ! Solar Absorptance
  0.7;                                    ! Visible Absorptance

OS:Material:NoMass,
  {ca229162-86de-4fe0-a371-3ae191d34dbf}, ! Handle
  CP02 CARPET PAD,                        ! Name
  VeryRough,                              ! Roughness
  0.21648,                                ! Thermal Resistance {m2-K/W}
  0.9,                                    ! Thermal Absorptance
  0.7,                                    ! Solar Absorptance
  0.8;                                    ! Visible Absorptance

OS:Construction,
  {d1415b7c-875f-494a-95bb-21e7194c3658}, ! Handle
  90.1-2001 Nonres B16 Ext Slab Unheated - 4in Slab with Carpet, ! Name
  ,                                       ! Surface Rendering Name
  {f5959e65-cfb5-4719-9248-f583bc905eb8}, ! Layer 1
  {ca229162-86de-4fe0-a371-3ae191d34dbf}; ! Layer 2

OS:ComponentCost:LineItem,
  {b49aa94e-d7d7-43bc-9bfe-3c77253c7b8c}, ! Handle
  90.1-2001 Nonres B16 Ext Slab Unheated - 4in Slab with Carpet, ! Name
  ,                                       ! Type
  Construction,                           ! Line Item Type
  90.1-2001 Nonres B16 Ext Slab Unheated - 4in Slab with Carpet, ! Item Name
  ,                                       ! Object End Use Key
  ,                                       ! Quantity {dimensionless}
  45.52,                                  ! Material Cost {$}
  CostPerArea;                            ! Material Cost Units

