
OS:Version,
  {beae460d-579b-4a5b-9b74-508f4aad502c}, ! Handle
  0.9.3;                                  ! Version Identifier

OS:ComponentCost:LineItem,
  {42472135-2d30-4702-986a-3f6129a03e97}, ! Handle
  90.1 Windows Window Fixed 2322 Brk-Grn-Std-ClrPye, ! Name
  ,                                       ! Type
  Construction,                           ! Line Item Type
  90.1 Windows Window Fixed 2322 Brk-Grn-Std-ClrPye, ! Item Name
  ,                                       ! Object End Use Key
  ,                                       ! Quantity {dimensionless}
  0,                                      ! Material Cost {$}
  CostPerArea;                            ! Material Cost Units

OS:Construction,
  {a41b9e14-8ee3-4939-857c-22d9c66bb987}, ! Handle
  90.1 Windows Window Fixed 2322 Brk-Grn-Std-ClrPye, ! Name
  ,                                       ! Surface Rendering Name
  {e2539997-d569-4c22-861e-0604b42327b7}; ! Layer 1

OS:WindowMaterial:Glazing,
  {e2539997-d569-4c22-861e-0604b42327b7}, ! Handle
  Theoretical Glass [334],                ! Name
  SpectralAverage,                        ! Optical Data Type
  ,                                       ! Window Glass Spectral Data Set Name
  0.003,                                  ! Thickness {m}
  0.423708,                               ! Solar Transmittance at Normal Incidence
  0.526292,                               ! Front Side Solar Reflectance at Normal Incidence
  0.526292,                               ! Back Side Solar Reflectance at Normal Incidence
  0.549983,                               ! Visible Transmittance at Normal Incidence
  0.400017,                               ! Front Side Visible Reflectance at Normal Incidence
  0.400017,                               ! Back Side Visible Reflectance at Normal Incidence
  0,                                      ! Infrared Transmittance at Normal Incidence
  0.9,                                    ! Front Side Infrared Hemispherical Emissivity
  0.9,                                    ! Back Side Infrared Hemispherical Emissivity
  0.0150091;                              ! Conductivity {W/m-K}

