
OS:Version,
  {4762beb5-cff4-45c7-a580-8cd6c453882b}, ! Handle
  0.9.3;                                  ! Version Identifier

OS:Construction,
  {2d4f9831-0784-4c7d-a968-9c1cefe92d43}, ! Handle
  90.1-1999 Res B13 Ext Slab Unheated - 4in Slab without Carpet, ! Name
  ,                                       ! Surface Rendering Name
  {9726d9cc-0978-4e6c-ab31-8eaa8d5c9002}; ! Layer 1

OS:Material,
  {9726d9cc-0978-4e6c-ab31-8eaa8d5c9002}, ! Handle
  MAT-CC05 4 HW CONCRETE,                 ! Name
  Rough,                                  ! Roughness
  0.1016,                                 ! Thickness {m}
  1.311,                                  ! Conductivity {W/m-K}
  2240,                                   ! Density {kg/m3}
  836.8,                                  ! Specific Heat {J/kg-K}
  0.9,                                    ! Thermal Absorptance
  0.7,                                    ! Solar Absorptance
  0.7;                                    ! Visible Absorptance

OS:ComponentCost:LineItem,
  {3ec5fcb8-7cb5-4423-bbb4-565bdc5852cd}, ! Handle
  90.1-1999 Res B13 Ext Slab Unheated - 4in Slab without Carpet, ! Name
  ,                                       ! Type
  Construction,                           ! Line Item Type
  90.1-1999 Res B13 Ext Slab Unheated - 4in Slab without Carpet, ! Item Name
  ,                                       ! Object End Use Key
  ,                                       ! Quantity {dimensionless}
  45.52,                                  ! Material Cost {$}
  CostPerArea;                            ! Material Cost Units

OS:ComponentData,
  {76ee5923-ca41-4765-a6a1-58f9ed626de3}, ! Handle
  Component Data 1,                       ! Name
  {38b81ba2-5bf0-4d9d-8046-e8b528487671}, ! UUID
  {fbac3682-cf26-4fa3-b187-ad86b955c997}, ! Version UUID
  1363981221,                             ! Creation Timestamp
  1363981221,                             ! Version Timestamp
  {2d4f9831-0784-4c7d-a968-9c1cefe92d43}, ! Name of Object 1
  {9726d9cc-0978-4e6c-ab31-8eaa8d5c9002}, ! Name of Object 2
  {3ec5fcb8-7cb5-4423-bbb4-565bdc5852cd}; ! Name of Object 3

