
OS:Version,
  {ab29c072-d9c8-464b-9cf8-4a459c0b0762}, ! Handle
  0.9.3;                                  ! Version Identifier

OS:Material,
  {defb3eff-ef22-4c55-b954-82c6cabfd3c5}, ! Handle
  1IN Stucco,                             ! Name
  Smooth,                                 ! Roughness
  0.0253,                                 ! Thickness {m}
  0.6918,                                 ! Conductivity {W/m-K}
  1858,                                   ! Density {kg/m3}
  837,                                    ! Specific Heat {J/kg-K}
  0.9,                                    ! Thermal Absorptance
  0.92,                                   ! Solar Absorptance
  0.92;                                   ! Visible Absorptance

OS:Material,
  {bce23c81-1528-4fb3-96a8-d52e8a2b0b9e}, ! Handle
  Wall Insulation [8],                    ! Name
  MediumRough,                            ! Roughness
  0.067929,                               ! Thickness {m}
  0.0432,                                 ! Conductivity {W/m-K}
  91,                                     ! Density {kg/m3}
  837,                                    ! Specific Heat {J/kg-K}
  0.9,                                    ! Thermal Absorptance
  0.5,                                    ! Solar Absorptance
  0.5;                                    ! Visible Absorptance

OS:Material,
  {bc7f1255-83dc-45d2-b31f-3ef3fb408ecc}, ! Handle
  8IN Concrete HW,                        ! Name
  MediumRough,                            ! Roughness
  0.2033,                                 ! Thickness {m}
  1.7296,                                 ! Conductivity {W/m-K}
  2243,                                   ! Density {kg/m3}
  837,                                    ! Specific Heat {J/kg-K}
  0.9,                                    ! Thermal Absorptance
  0.65,                                   ! Solar Absorptance
  0.65;                                   ! Visible Absorptance

OS:Material,
  {d6b3d54e-e53a-46e9-9f5f-7f2209575b0c}, ! Handle
  1/2IN Gypsum,                           ! Name
  Smooth,                                 ! Roughness
  0.01271,                                ! Thickness {m}
  0.16,                                   ! Conductivity {W/m-K}
  784.9,                                  ! Density {kg/m3}
  830,                                    ! Specific Heat {J/kg-K}
  0.9,                                    ! Thermal Absorptance
  0.92,                                   ! Solar Absorptance
  0.92;                                   ! Visible Absorptance

OS:Construction,
  {3bccfbe7-f0d1-4344-b19b-abb3fc44a975}, ! Handle
  AEDG SHC Nonres 3A Ext Wall Mass,       ! Name
  ,                                       ! Surface Rendering Name
  {defb3eff-ef22-4c55-b954-82c6cabfd3c5}, ! Layer 1
  {bc7f1255-83dc-45d2-b31f-3ef3fb408ecc}, ! Layer 2
  {bce23c81-1528-4fb3-96a8-d52e8a2b0b9e}, ! Layer 3
  {d6b3d54e-e53a-46e9-9f5f-7f2209575b0c}; ! Layer 4

OS:ComponentCost:LineItem,
  {2308edf3-287c-49cb-994e-ffa95e41fe61}, ! Handle
  AEDG SHC Nonres 3A Ext Wall Mass,       ! Name
  ,                                       ! Type
  Construction,                           ! Line Item Type
  AEDG SHC Nonres 3A Ext Wall Mass,       ! Item Name
  ,                                       ! Object End Use Key
  ,                                       ! Quantity {dimensionless}
  0,                                      ! Material Cost {$}
  CostPerArea;                            ! Material Cost Units

