
OS:Version,
  {e013b356-62ea-4e91-89cd-ac3e736f53a5}, ! Handle
  0.9.3;                                  ! Version Identifier

OS:ComponentCost:LineItem,
  {171ad288-5ab2-4c76-ab83-1d89346f9c6c}, ! Handle
  90.1-1999 Res B17 Roof IEAD,            ! Name
  ,                                       ! Type
  Construction,                           ! Line Item Type
  90.1-1999 Res B17 Roof IEAD,            ! Item Name
  ,                                       ! Object End Use Key
  ,                                       ! Quantity {dimensionless}
  49.208,                                 ! Material Cost {$}
  CostPerArea;                            ! Material Cost Units

OS:Material,
  {917dd6a5-0d59-4d03-bda1-2b377765fdd9}, ! Handle
  Metal Decking,                          ! Name
  MediumSmooth,                           ! Roughness
  0.001524,                               ! Thickness {m}
  45.006,                                 ! Conductivity {W/m-K}
  7680,                                   ! Density {kg/m3}
  418.4,                                  ! Specific Heat {J/kg-K}
  0.9,                                    ! Thermal Absorptance
  0.7,                                    ! Solar Absorptance
  0.3;                                    ! Visible Absorptance

OS:Material,
  {df2b3ff3-d0e4-43e9-8c8c-811f62b3c526}, ! Handle
  Roof Membrane,                          ! Name
  VeryRough,                              ! Roughness
  0.0095,                                 ! Thickness {m}
  0.16,                                   ! Conductivity {W/m-K}
  1121.29,                                ! Density {kg/m3}
  1460,                                   ! Specific Heat {J/kg-K}
  0.9,                                    ! Thermal Absorptance
  0.7,                                    ! Solar Absorptance
  0.7;                                    ! Visible Absorptance

OS:Material,
  {b4523d9e-caa4-4f68-8c0e-fcd1b49ad256}, ! Handle
  Roof Insulation,                        ! Name
  MediumRough,                            ! Roughness
  0.124958,                               ! Thickness {m}
  0.049,                                  ! Conductivity {W/m-K}
  265,                                    ! Density {kg/m3}
  836.8,                                  ! Specific Heat {J/kg-K}
  0.9,                                    ! Thermal Absorptance
  0.7,                                    ! Solar Absorptance
  0.7;                                    ! Visible Absorptance

OS:Construction,
  {4ebb6d50-5ce8-41e5-8277-5ca06e3a1590}, ! Handle
  90.1-1999 Res B17 Roof IEAD,            ! Name
  ,                                       ! Surface Rendering Name
  {df2b3ff3-d0e4-43e9-8c8c-811f62b3c526}, ! Layer 1
  {b4523d9e-caa4-4f68-8c0e-fcd1b49ad256}, ! Layer 2
  {917dd6a5-0d59-4d03-bda1-2b377765fdd9}; ! Layer 3

