
OS:Version,
  {64760d7b-a459-46ec-b87e-7c4ab6a310ce}, ! Handle
  0.9.3;                                  ! Version Identifier

OS:Construction,
  {9fbfc410-adbb-4561-aa6f-d99d8d502af1}, ! Handle
  90.1-1999 Res B13 Skylight without Curb, ! Name
  ,                                       ! Surface Rendering Name
  {edb84055-dab0-483d-8d7c-70de6305e8ae}; ! Layer 1

OS:WindowMaterial:Glazing,
  {edb84055-dab0-483d-8d7c-70de6305e8ae}, ! Handle
  Theoretical Glass [91],                 ! Name
  SpectralAverage,                        ! Optical Data Type
  ,                                       ! Window Glass Spectral Data Set Name
  0.003,                                  ! Thickness {m}
  0.37308,                                ! Solar Transmittance at Normal Incidence
  0.57692,                                ! Front Side Solar Reflectance at Normal Incidence
  0.57692,                                ! Back Side Solar Reflectance at Normal Incidence
  0.390045,                               ! Visible Transmittance at Normal Incidence
  0.559955,                               ! Front Side Visible Reflectance at Normal Incidence
  0.559955,                               ! Back Side Visible Reflectance at Normal Incidence
  0,                                      ! Infrared Transmittance at Normal Incidence
  0.9,                                    ! Front Side Infrared Hemispherical Emissivity
  0.9,                                    ! Back Side Infrared Hemispherical Emissivity
  0.0324872;                              ! Conductivity {W/m-K}

OS:ComponentCost:LineItem,
  {d9e3f172-a299-473f-9058-61388571100a}, ! Handle
  90.1-1999 Res B13 Skylight without Curb, ! Name
  ,                                       ! Type
  Construction,                           ! Line Item Type
  90.1-1999 Res B13 Skylight without Curb, ! Item Name
  ,                                       ! Object End Use Key
  ,                                       ! Quantity {dimensionless}
  535.8,                                  ! Material Cost {$}
  CostPerArea;                            ! Material Cost Units

OS:ComponentData,
  {d20c98c5-329b-4f96-9458-9fcfce9b1434}, ! Handle
  Component Data 1,                       ! Name
  {94a0fd65-a632-45a0-b9dc-a5e736c0467e}, ! UUID
  {874e4b79-89bb-49fc-a6c1-003acccf3f57}, ! Version UUID
  1363981223,                             ! Creation Timestamp
  1363981223,                             ! Version Timestamp
  {9fbfc410-adbb-4561-aa6f-d99d8d502af1}, ! Name of Object 1
  {edb84055-dab0-483d-8d7c-70de6305e8ae}, ! Name of Object 2
  {d9e3f172-a299-473f-9058-61388571100a}; ! Name of Object 3

