
OS:Version,
  {ac688605-b417-4236-993e-17735705b4c1}, ! Handle
  0.9.3;                                  ! Version Identifier

OS:Material,
  {454f7dd9-1af8-4634-8cb0-273f0175d8ce}, ! Handle
  MAT-CC05 8 HW CONCRETE,                 ! Name
  Rough,                                  ! Roughness
  0.20321,                                ! Thickness {m}
  1.311,                                  ! Conductivity {W/m-K}
  2240,                                   ! Density {kg/m3}
  836.8,                                  ! Specific Heat {J/kg-K}
  0.9,                                    ! Thermal Absorptance
  0.7,                                    ! Solar Absorptance
  0.7;                                    ! Visible Absorptance

OS:Construction,
  {e7f39dfc-4ace-4a93-9f41-e417864813b4}, ! Handle
  90.1-2007 Nonres 5B Ext Slab Unheated - 8in Slab without Carpet, ! Name
  ,                                       ! Surface Rendering Name
  {454f7dd9-1af8-4634-8cb0-273f0175d8ce}; ! Layer 1

OS:ComponentCost:LineItem,
  {db7b1ede-c167-4726-89cf-15927da1be45}, ! Handle
  90.1-2007 Nonres 5B Ext Slab Unheated - 8in Slab without Carpet, ! Name
  ,                                       ! Type
  Construction,                           ! Line Item Type
  90.1-2007 Nonres 5B Ext Slab Unheated - 8in Slab without Carpet, ! Item Name
  ,                                       ! Object End Use Key
  ,                                       ! Quantity {dimensionless}
  45.52,                                  ! Material Cost {$}
  CostPerArea;                            ! Material Cost Units

