
OS:Version,
  {0d35a092-e377-4ccd-966f-0f5d670815ae}, ! Handle
  0.9.3;                                  ! Version Identifier

OS:Construction,
  {add00ec3-fa70-4c77-a32f-f09d58941cd0}, ! Handle
  90.1-2007 Nonres 5B Ext Slab Unheated - 8in Slab without Carpet, ! Name
  ,                                       ! Surface Rendering Name
  {7c8adcc4-32d4-41c8-9851-b9fef3012b4c}; ! Layer 1

OS:Material,
  {7c8adcc4-32d4-41c8-9851-b9fef3012b4c}, ! Handle
  MAT-CC05 8 HW CONCRETE,                 ! Name
  Rough,                                  ! Roughness
  0.20321,                                ! Thickness {m}
  1.311,                                  ! Conductivity {W/m-K}
  2240,                                   ! Density {kg/m3}
  836.8,                                  ! Specific Heat {J/kg-K}
  0.9,                                    ! Thermal Absorptance
  0.7,                                    ! Solar Absorptance
  0.7;                                    ! Visible Absorptance

OS:ComponentCost:LineItem,
  {fb507344-935d-4d8a-9c4c-e6ce327264ef}, ! Handle
  90.1-2007 Nonres 5B Ext Slab Unheated - 8in Slab without Carpet, ! Name
  ,                                       ! Type
  Construction,                           ! Line Item Type
  90.1-2007 Nonres 5B Ext Slab Unheated - 8in Slab without Carpet, ! Item Name
  ,                                       ! Object End Use Key
  ,                                       ! Quantity {dimensionless}
  45.52,                                  ! Material Cost {$}
  CostPerArea;                            ! Material Cost Units

OS:ComponentData,
  {8e70c739-1023-4cf5-878f-c2b045bdb591}, ! Handle
  Component Data 1,                       ! Name
  {5f0b7cbb-ea4c-4cd0-81b4-a7ebe6c69a45}, ! UUID
  {15908ea6-0184-4d61-8eb5-b91735cb46a9}, ! Version UUID
  1363981808,                             ! Creation Timestamp
  1363981808,                             ! Version Timestamp
  {add00ec3-fa70-4c77-a32f-f09d58941cd0}, ! Name of Object 1
  {7c8adcc4-32d4-41c8-9851-b9fef3012b4c}, ! Name of Object 2
  {fb507344-935d-4d8a-9c4c-e6ce327264ef}; ! Name of Object 3

