
OS:Version,
  {2f6e9f39-b9b5-4aa7-84b2-e29976875e12}, ! Handle
  0.9.3;                                  ! Version Identifier

OS:ComponentCost:LineItem,
  {71c749bc-831c-4967-9e1e-822c7cd6e534}, ! Handle
  90.1-1999 Nonres B2 Window Fixed,       ! Name
  ,                                       ! Type
  Construction,                           ! Line Item Type
  90.1-1999 Nonres B2 Window Fixed,       ! Item Name
  ,                                       ! Object End Use Key
  ,                                       ! Quantity {dimensionless}
  473.607,                                ! Material Cost {$}
  CostPerArea;                            ! Material Cost Units

OS:Construction,
  {3de740a2-c6c6-40f8-bb5e-cb42c54555dd}, ! Handle
  90.1-1999 Nonres B2 Window Fixed,       ! Name
  ,                                       ! Surface Rendering Name
  {a875b69d-6019-4c32-b4d1-28202821d186}; ! Layer 1

OS:WindowMaterial:Glazing,
  {a875b69d-6019-4c32-b4d1-28202821d186}, ! Handle
  Theoretical Glass [7],                  ! Name
  SpectralAverage,                        ! Optical Data Type
  ,                                       ! Window Glass Spectral Data Set Name
  0.003,                                  ! Thickness {m}
  0.31664,                                ! Solar Transmittance at Normal Incidence
  0.63336,                                ! Front Side Solar Reflectance at Normal Incidence
  0.63336,                                ! Back Side Solar Reflectance at Normal Incidence
  0.34081,                                ! Visible Transmittance at Normal Incidence
  0.60919,                                ! Front Side Visible Reflectance at Normal Incidence
  0.60919,                                ! Back Side Visible Reflectance at Normal Incidence
  0,                                      ! Infrared Transmittance at Normal Incidence
  0.999,                                  ! Front Side Infrared Hemispherical Emissivity
  0.999,                                  ! Back Side Infrared Hemispherical Emissivity
  3.36874;                                ! Conductivity {W/m-K}

