
OS:Version,
  {46cb8625-caf5-4aa4-b680-3248c41b688a}, ! Handle
  0.9.3;                                  ! Version Identifier

OS:Construction,
  {4459b06f-7c71-4aec-b937-fbf2c745f220}, ! Handle
  90.1-1999 Nonres B2 Window Fixed,       ! Name
  ,                                       ! Surface Rendering Name
  {39cbdc4e-0c98-4e62-9377-71595cd93c90}; ! Layer 1

OS:WindowMaterial:Glazing,
  {39cbdc4e-0c98-4e62-9377-71595cd93c90}, ! Handle
  Theoretical Glass [7],                  ! Name
  SpectralAverage,                        ! Optical Data Type
  ,                                       ! Window Glass Spectral Data Set Name
  0.003,                                  ! Thickness {m}
  0.31664,                                ! Solar Transmittance at Normal Incidence
  0.63336,                                ! Front Side Solar Reflectance at Normal Incidence
  0.63336,                                ! Back Side Solar Reflectance at Normal Incidence
  0.34081,                                ! Visible Transmittance at Normal Incidence
  0.60919,                                ! Front Side Visible Reflectance at Normal Incidence
  0.60919,                                ! Back Side Visible Reflectance at Normal Incidence
  0,                                      ! Infrared Transmittance at Normal Incidence
  0.999,                                  ! Front Side Infrared Hemispherical Emissivity
  0.999,                                  ! Back Side Infrared Hemispherical Emissivity
  3.36874;                                ! Conductivity {W/m-K}

OS:ComponentCost:LineItem,
  {c143b7c8-f6fd-468d-80f9-756813b32ad8}, ! Handle
  90.1-1999 Nonres B2 Window Fixed,       ! Name
  ,                                       ! Type
  Construction,                           ! Line Item Type
  90.1-1999 Nonres B2 Window Fixed,       ! Item Name
  ,                                       ! Object End Use Key
  ,                                       ! Quantity {dimensionless}
  473.607,                                ! Material Cost {$}
  CostPerArea;                            ! Material Cost Units

OS:ComponentData,
  {fdbef106-6ffd-48b9-95bf-5513f1510caa}, ! Handle
  Component Data 1,                       ! Name
  {5e18f2b7-a313-4eb4-afcf-75b17ef8a197}, ! UUID
  {fd38f46e-4066-4107-bf18-3b98f344b263}, ! Version UUID
  1363981046,                             ! Creation Timestamp
  1363981046,                             ! Version Timestamp
  {4459b06f-7c71-4aec-b937-fbf2c745f220}, ! Name of Object 1
  {39cbdc4e-0c98-4e62-9377-71595cd93c90}, ! Name of Object 2
  {c143b7c8-f6fd-468d-80f9-756813b32ad8}; ! Name of Object 3

