
OS:Version,
  {a328fec2-909b-49ba-9963-65d03ac5da42}, !- Handle
  1.1.0;                                  !- Version Identifier

OS:Construction,
  {f49ee9de-d8b1-4e2b-a5e1-e5e9fbc900fa}, !- Handle
  Dbl Elec Ref Bleached 6mm/13mm Arg,     !- Name
  ,                                       !- Surface Rendering Name
  {27344c1d-5529-4e22-94b1-80682ce80059}, !- Layer 1
  {bd035497-b4a1-40ac-ad12-e4bc681619e1}, !- Layer 2
  {b805c2f3-6a62-48ea-8836-3f64daf96bde}; !- Layer 3

OS:WindowMaterial:Glazing,
  {27344c1d-5529-4e22-94b1-80682ce80059}, !- Handle
  ECREF-2 BLEACHED 6MM,                   !- Name
  SpectralAverage,                        !- Optical Data Type
  ,                                       !- Window Glass Spectral Data Set Name
  0.006,                                  !- Thickness {m}
  0.694,                                  !- Solar Transmittance at Normal Incidence
  0.168,                                  !- Front Side Solar Reflectance at Normal Incidence
  0.168,                                  !- Back Side Solar Reflectance at Normal Incidence
  0.818,                                  !- Visible Transmittance at Normal Incidence
  0.11,                                   !- Front Side Visible Reflectance at Normal Incidence
  0.11,                                   !- Back Side Visible Reflectance at Normal Incidence
  0,                                      !- Infrared Transmittance at Normal Incidence
  0.84,                                   !- Front Side Infrared Hemispherical Emissivity
  0.1,                                    !- Back Side Infrared Hemispherical Emissivity
  0.9;                                    !- Conductivity {W/m-K}

OS:WindowMaterial:Gas,
  {bd035497-b4a1-40ac-ad12-e4bc681619e1}, !- Handle
  ARGON 13MM,                             !- Name
  Argon,                                  !- Gas Type
  0.0127;                                 !- Thickness {m}

OS:WindowMaterial:Glazing,
  {b805c2f3-6a62-48ea-8836-3f64daf96bde}, !- Handle
  CLEAR 6MM,                              !- Name
  SpectralAverage,                        !- Optical Data Type
  ,                                       !- Window Glass Spectral Data Set Name
  0.006,                                  !- Thickness {m}
  0.775,                                  !- Solar Transmittance at Normal Incidence
  0.071,                                  !- Front Side Solar Reflectance at Normal Incidence
  0.071,                                  !- Back Side Solar Reflectance at Normal Incidence
  0.881,                                  !- Visible Transmittance at Normal Incidence
  0.08,                                   !- Front Side Visible Reflectance at Normal Incidence
  0.08,                                   !- Back Side Visible Reflectance at Normal Incidence
  0,                                      !- Infrared Transmittance at Normal Incidence
  0.84,                                   !- Front Side Infrared Hemispherical Emissivity
  0.84,                                   !- Back Side Infrared Hemispherical Emissivity
  0.9;                                    !- Conductivity {W/m-K}

