
OS:Version,
  {001f57a2-5558-4a08-b48a-d70c3453bc8e}, ! Handle
  0.9.3;                                  ! Version Identifier

OS:Construction,
  {5ecfd480-b90a-42a2-9181-61cecac9a604}, ! Handle
  90.1-2001 Nonres B26 Ext Slab Unheated - 8in Slab without Carpet, ! Name
  ,                                       ! Surface Rendering Name
  {e6e255b1-dafa-4b2c-8aee-fcbe418f0218}; ! Layer 1

OS:Material,
  {e6e255b1-dafa-4b2c-8aee-fcbe418f0218}, ! Handle
  MAT-CC05 8 HW CONCRETE,                 ! Name
  Rough,                                  ! Roughness
  0.20321,                                ! Thickness {m}
  1.311,                                  ! Conductivity {W/m-K}
  2240,                                   ! Density {kg/m3}
  836.8,                                  ! Specific Heat {J/kg-K}
  0.9,                                    ! Thermal Absorptance
  0.7,                                    ! Solar Absorptance
  0.7;                                    ! Visible Absorptance

OS:ComponentCost:LineItem,
  {3ff5e82e-cd97-4869-9565-1610dbf2892a}, ! Handle
  90.1-2001 Nonres B26 Ext Slab Unheated - 8in Slab without Carpet, ! Name
  ,                                       ! Type
  Construction,                           ! Line Item Type
  90.1-2001 Nonres B26 Ext Slab Unheated - 8in Slab without Carpet, ! Item Name
  ,                                       ! Object End Use Key
  ,                                       ! Quantity {dimensionless}
  45.52,                                  ! Material Cost {$}
  CostPerArea;                            ! Material Cost Units

