
OS:Version,
  {dc3cc1f4-6f9c-44ae-a0d7-7dd072bcaa0c}, ! Handle
  0.9.3;                                  ! Version Identifier

OS:Construction,
  {72ca3fa5-8bc9-440b-b802-3afda413d9dc}, ! Handle
  90.1-2007 Res 4B Window Metal framing all other, ! Name
  ,                                       ! Surface Rendering Name
  {e6e34193-5178-4d96-91e9-a5b3101fc546}; ! Layer 1

OS:WindowMaterial:Glazing,
  {e6e34193-5178-4d96-91e9-a5b3101fc546}, ! Handle
  Theoretical Glass [182],                ! Name
  SpectralAverage,                        ! Optical Data Type
  ,                                       ! Window Glass Spectral Data Set Name
  0.003,                                  ! Thickness {m}
  0.39333,                                ! Solar Transmittance at Normal Incidence
  0.55667,                                ! Front Side Solar Reflectance at Normal Incidence
  0.55667,                                ! Back Side Solar Reflectance at Normal Incidence
  0.507883,                               ! Visible Transmittance at Normal Incidence
  0.442117,                               ! Front Side Visible Reflectance at Normal Incidence
  0.442117,                               ! Back Side Visible Reflectance at Normal Incidence
  0,                                      ! Infrared Transmittance at Normal Incidence
  0.9,                                    ! Front Side Infrared Hemispherical Emissivity
  0.9,                                    ! Back Side Infrared Hemispherical Emissivity
  0.0185383;                              ! Conductivity {W/m-K}

OS:ComponentCost:LineItem,
  {ec37bf9e-4d83-4f20-9ce9-7fb17af5e5de}, ! Handle
  90.1-2007 Res 4B Window Metal framing all other, ! Name
  ,                                       ! Type
  Construction,                           ! Line Item Type
  90.1-2007 Res 4B Window Metal framing all other, ! Item Name
  ,                                       ! Object End Use Key
  ,                                       ! Quantity {dimensionless}
  512.02,                                 ! Material Cost {$}
  CostPerArea;                            ! Material Cost Units

