
OS:Version,
  {29eeb3f5-2421-458a-9b01-c48a58fd4897}, ! Handle
  0.9.3;                                  ! Version Identifier

OS:WindowMaterial:Glazing,
  {5bed91a3-3c12-4ee5-90dc-75091423eee2}, ! Handle
  Theoretical Glass [197],                ! Name
  SpectralAverage,                        ! Optical Data Type
  ,                                       ! Window Glass Spectral Data Set Name
  0.003,                                  ! Thickness {m}
  0.234943,                               ! Solar Transmittance at Normal Incidence
  0.715057,                               ! Front Side Solar Reflectance at Normal Incidence
  0.715057,                               ! Back Side Solar Reflectance at Normal Incidence
  0.251212,                               ! Visible Transmittance at Normal Incidence
  0.698788,                               ! Front Side Visible Reflectance at Normal Incidence
  0.698788,                               ! Back Side Visible Reflectance at Normal Incidence
  0,                                      ! Infrared Transmittance at Normal Incidence
  0.9,                                    ! Front Side Infrared Hemispherical Emissivity
  0.9,                                    ! Back Side Infrared Hemispherical Emissivity
  0.0414988;                              ! Conductivity {W/m-K}

OS:Construction,
  {85d21ba6-9d29-4d1e-b2b3-f60fc1dde3cf}, ! Handle
  189.1-2009 Res 2A Window Metal framing all other, ! Name
  ,                                       ! Surface Rendering Name
  {5bed91a3-3c12-4ee5-90dc-75091423eee2}; ! Layer 1

OS:ComponentCost:LineItem,
  {e89963d4-45dc-4ff0-ba0c-7981f03fa9dd}, ! Handle
  189.1-2009 Res 2A Window Metal framing all other, ! Name
  ,                                       ! Type
  Construction,                           ! Line Item Type
  189.1-2009 Res 2A Window Metal framing all other, ! Item Name
  ,                                       ! Object End Use Key
  ,                                       ! Quantity {dimensionless}
  600.037,                                ! Material Cost {$}
  CostPerArea;                            ! Material Cost Units

