
OS:Version,
  {57244f7b-c8e5-4328-b0be-501b19b8c9f6}, !- Handle
  1.1.0;                                  !- Version Identifier

OS:Construction,
  {31137e4f-a5fe-4524-90f9-ff1efa688197}, !- Handle
  Sgl Elec Ref Colored 6mm,               !- Name
  ,                                       !- Surface Rendering Name
  {9e4fbd24-1fa9-477c-afb5-ff6eeea6c476}; !- Layer 1

OS:WindowMaterial:Glazing,
  {9e4fbd24-1fa9-477c-afb5-ff6eeea6c476}, !- Handle
  ECREF-1 COLORED 6MM,                    !- Name
  SpectralAverage,                        !- Optical Data Type
  ,                                       !- Window Glass Spectral Data Set Name
  0.006,                                  !- Thickness {m}
  0.099,                                  !- Solar Transmittance at Normal Incidence
  0.219,                                  !- Front Side Solar Reflectance at Normal Incidence
  0.219,                                  !- Back Side Solar Reflectance at Normal Incidence
  0.155,                                  !- Visible Transmittance at Normal Incidence
  0.073,                                  !- Front Side Visible Reflectance at Normal Incidence
  0.073,                                  !- Back Side Visible Reflectance at Normal Incidence
  0,                                      !- Infrared Transmittance at Normal Incidence
  0.84,                                   !- Front Side Infrared Hemispherical Emissivity
  0.84,                                   !- Back Side Infrared Hemispherical Emissivity
  0.9;                                    !- Conductivity {W/m-K}

