
OS:Version,
  {90e3bafb-aa41-4a37-90d2-6288485c052e}, ! Handle
  0.9.3;                                  ! Version Identifier

OS:Construction,
  {97ddf1f9-0602-480a-a8f6-7e0197bf5a57}, ! Handle
  90.1-2007 Res 7A Int Wall,              ! Name
  ,                                       ! Surface Rendering Name
  {07694413-059e-44bc-b8b4-e56656666ee2}, ! Layer 1
  {07694413-059e-44bc-b8b4-e56656666ee2}; ! Layer 2

OS:Material,
  {07694413-059e-44bc-b8b4-e56656666ee2}, ! Handle
  GP01 1/2 GYPSUM,                        ! Name
  Smooth,                                 ! Roughness
  0.01271,                                ! Thickness {m}
  0.16,                                   ! Conductivity {W/m-K}
  800,                                    ! Density {kg/m3}
  1090,                                   ! Specific Heat {J/kg-K}
  0.9,                                    ! Thermal Absorptance
  0.7,                                    ! Solar Absorptance
  0.5;                                    ! Visible Absorptance

OS:ComponentCost:LineItem,
  {01b7f405-e2d3-4402-8682-3b434dfd9d98}, ! Handle
  90.1-2007 Res 7A Int Wall,              ! Name
  ,                                       ! Type
  Construction,                           ! Line Item Type
  90.1-2007 Res 7A Int Wall,              ! Item Name
  ,                                       ! Object End Use Key
  ,                                       ! Quantity {dimensionless}
  0,                                      ! Material Cost {$}
  CostPerArea;                            ! Material Cost Units

OS:ComponentData,
  {b6ebaac4-3c47-451f-8b76-080011fcd279}, ! Handle
  Component Data 1,                       ! Name
  {231a7fc9-0b10-44b0-97c3-a6b533fbe285}, ! UUID
  {0952ca3a-cf94-4d7e-a99c-90a76f766742}, ! Version UUID
  1363981868,                             ! Creation Timestamp
  1363981868,                             ! Version Timestamp
  {97ddf1f9-0602-480a-a8f6-7e0197bf5a57}, ! Name of Object 1
  {07694413-059e-44bc-b8b4-e56656666ee2}, ! Name of Object 2
  {01b7f405-e2d3-4402-8682-3b434dfd9d98}; ! Name of Object 3

