
OS:Version,
  {5096320b-2fce-488c-bb38-e0204c480fb1}, ! Handle
  0.9.3;                                  ! Version Identifier

OS:Material,
  {3d673172-4b69-4728-8e9f-cafcf483f380}, ! Handle
  GP01 1/2 GYPSUM 1,                      ! Name
  Smooth,                                 ! Roughness
  0.01271,                                ! Thickness {m}
  0.16,                                   ! Conductivity {W/m-K}
  800,                                    ! Density {kg/m3}
  1090,                                   ! Specific Heat {J/kg-K}
  0.9,                                    ! Thermal Absorptance
  0.7,                                    ! Solar Absorptance
  0.5;                                    ! Visible Absorptance

OS:ComponentCost:LineItem,
  {1664ffd3-4ba8-4cbe-9212-4740e620a911}, ! Handle
  90.1-2007 Res 7A Int Wall,              ! Name
  ,                                       ! Type
  Construction,                           ! Line Item Type
  90.1-2007 Res 7A Int Wall,              ! Item Name
  ,                                       ! Object End Use Key
  ,                                       ! Quantity {dimensionless}
  0,                                      ! Material Cost {$}
  CostPerArea;                            ! Material Cost Units

OS:Construction,
  {8048ee79-2de3-4255-9aa7-334de74f55ce}, ! Handle
  90.1-2007 Res 7A Int Wall,              ! Name
  ,                                       ! Surface Rendering Name
  {8076c61d-31fd-4cb9-9c0e-5105369e703f}, ! Layer 1
  {8076c61d-31fd-4cb9-9c0e-5105369e703f}; ! Layer 2

OS:Material,
  {8076c61d-31fd-4cb9-9c0e-5105369e703f}, ! Handle
  GP01 1/2 GYPSUM,                        ! Name
  Smooth,                                 ! Roughness
  0.01271,                                ! Thickness {m}
  0.16,                                   ! Conductivity {W/m-K}
  800,                                    ! Density {kg/m3}
  1090,                                   ! Specific Heat {J/kg-K}
  0.9,                                    ! Thermal Absorptance
  0.7,                                    ! Solar Absorptance
  0.5;                                    ! Visible Absorptance

