
OS:Version,
  {84d68138-59dc-4e62-ae32-f64d36e1a3fe}, ! Handle
  0.9.3;                                  ! Version Identifier

OS:Construction,
  {7872545f-36af-4219-b8a2-009b81ffb303}, ! Handle
  90.1-2004 Res 3A Roof Metal Building,   ! Name
  ,                                       ! Surface Rendering Name
  {c1cb2a32-f385-42a3-991e-44861515a39b}, ! Layer 1
  {3d861bfb-0f61-4b46-9fb2-b1808be1a922}; ! Layer 2

OS:Material,
  {c1cb2a32-f385-42a3-991e-44861515a39b}, ! Handle
  Metal Roofing,                          ! Name
  MediumSmooth,                           ! Roughness
  0.001524,                               ! Thickness {m}
  45.006,                                 ! Conductivity {W/m-K}
  7680,                                   ! Density {kg/m3}
  418.4,                                  ! Specific Heat {J/kg-K}
  0.9,                                    ! Thermal Absorptance
  0.7,                                    ! Solar Absorptance
  0.3;                                    ! Visible Absorptance

OS:Material,
  {3d861bfb-0f61-4b46-9fb2-b1808be1a922}, ! Handle
  Roof Insulation [1],                    ! Name
  MediumRough,                            ! Roughness
  0.123533,                               ! Thickness {m}
  0.049,                                  ! Conductivity {W/m-K}
  265,                                    ! Density {kg/m3}
  836.8,                                  ! Specific Heat {J/kg-K}
  0.9,                                    ! Thermal Absorptance
  0.7,                                    ! Solar Absorptance
  0.7;                                    ! Visible Absorptance

OS:ComponentCost:LineItem,
  {fb76292d-7faa-412c-8dad-c50eede33c67}, ! Handle
  90.1-2004 Res 3A Roof Metal Building,   ! Name
  ,                                       ! Type
  Construction,                           ! Line Item Type
  90.1-2004 Res 3A Roof Metal Building,   ! Item Name
  ,                                       ! Object End Use Key
  ,                                       ! Quantity {dimensionless}
  38.206,                                 ! Material Cost {$}
  CostPerArea;                            ! Material Cost Units

OS:ComponentData,
  {373db519-526a-4471-99d6-541083200ff1}, ! Handle
  Component Data 1,                       ! Name
  {44040d23-6d9c-418b-9d9d-8bf2ce4393cb}, ! UUID
  {123ab10e-6ce9-490a-a9c8-3c06e9303468}, ! Version UUID
  1363981722,                             ! Creation Timestamp
  1363981722,                             ! Version Timestamp
  {7872545f-36af-4219-b8a2-009b81ffb303}, ! Name of Object 1
  {c1cb2a32-f385-42a3-991e-44861515a39b}, ! Name of Object 2
  {3d861bfb-0f61-4b46-9fb2-b1808be1a922}, ! Name of Object 3
  {fb76292d-7faa-412c-8dad-c50eede33c67}; ! Name of Object 4

