
OS:Version,
  {f5a4f5a5-3653-46ea-baf3-36dbdf4ec814}, ! Handle
  0.9.3;                                  ! Version Identifier

OS:Material,
  {01bd7dfe-426b-42f1-99a9-03bde2009899}, ! Handle
  Roof Insulation [1],                    ! Name
  MediumRough,                            ! Roughness
  0.123533,                               ! Thickness {m}
  0.049,                                  ! Conductivity {W/m-K}
  265,                                    ! Density {kg/m3}
  836.8,                                  ! Specific Heat {J/kg-K}
  0.9,                                    ! Thermal Absorptance
  0.7,                                    ! Solar Absorptance
  0.7;                                    ! Visible Absorptance

OS:Material,
  {d862b0ff-7ae7-4dc0-ba55-c79160ddb102}, ! Handle
  Metal Roofing,                          ! Name
  MediumSmooth,                           ! Roughness
  0.001524,                               ! Thickness {m}
  45.006,                                 ! Conductivity {W/m-K}
  7680,                                   ! Density {kg/m3}
  418.4,                                  ! Specific Heat {J/kg-K}
  0.9,                                    ! Thermal Absorptance
  0.7,                                    ! Solar Absorptance
  0.3;                                    ! Visible Absorptance

OS:ComponentCost:LineItem,
  {e32077bc-0dfd-4f0a-b3bd-cbff6aa32b2a}, ! Handle
  90.1-2004 Res 3A Roof Metal Building,   ! Name
  ,                                       ! Type
  Construction,                           ! Line Item Type
  90.1-2004 Res 3A Roof Metal Building,   ! Item Name
  ,                                       ! Object End Use Key
  ,                                       ! Quantity {dimensionless}
  38.206,                                 ! Material Cost {$}
  CostPerArea;                            ! Material Cost Units

OS:Construction,
  {238c78ac-60c6-4184-84f8-51c0157d4e32}, ! Handle
  90.1-2004 Res 3A Roof Metal Building,   ! Name
  ,                                       ! Surface Rendering Name
  {d862b0ff-7ae7-4dc0-ba55-c79160ddb102}, ! Layer 1
  {01bd7dfe-426b-42f1-99a9-03bde2009899}; ! Layer 2

