
! 
OS:Version,
  {8503bb35-3288-4176-9c41-752f3d976c4b}, !- Handle
  1.13.0;                                 !- Version Identifier


! 
OS:Material,
  {81907e25-ceba-4b19-bb2a-ca4e6bb6f03e}, !- Handle
  Aislamiento: SATE
WEBER: weber.therm placa LM 30 (0.100 m)
R: 2.8 m2K/W,                             !- Name
  MediumRough,                                 !- Roughness
  0.1,                                    !- Thickness {m}
  0.036,                                    !- Conductivity {W/m-K}
  120.0,                                    !- Density {kg/m3}
  800.0,                                    !- Specific Heat {J/kg-K}
  0.9,                                    !- Thermal Absorptance
  0.6,                                    !- Solar Absorptance
  0.6;                                    !- Visible Absorptance

