
OS:Version,
  {c32324b5-9cd6-478d-a23d-d7f52a7c2712}, ! Handle
  0.9.3;                                  ! Version Identifier

OS:Construction,
  {d4e38750-eff3-4b92-b256-6322835a1dbf}, ! Handle
  Title 24-2008 Nonres 6 Roof Attic and Other, ! Name
  ,                                       ! Surface Rendering Name
  {1acbcf47-16ea-45b1-a9a4-9f5bf7df0902}, ! Layer 1
  {eadacd72-e3ca-40f2-8f5f-a3b626f846b7}, ! Layer 2
  {48fca715-73c6-4e50-90c6-2a200488ac8a}, ! Layer 3
  {24c17487-e1c5-4f7c-b400-116f63ce9596}; ! Layer 4

OS:Material,
  {1acbcf47-16ea-45b1-a9a4-9f5bf7df0902}, ! Handle
  Wood Shingles [1],                      ! Name
  VeryRough,                              ! Roughness
  0.0178,                                 ! Thickness {m}
  0.115,                                  ! Conductivity {W/m-K}
  513,                                    ! Density {kg/m3}
  1255,                                   ! Specific Heat {J/kg-K}
  0.9,                                    ! Thermal Absorptance
  0.78,                                   ! Solar Absorptance
  0.85;                                   ! Visible Absorptance

OS:Material,
  {eadacd72-e3ca-40f2-8f5f-a3b626f846b7}, ! Handle
  1IN Wood Decking,                       ! Name
  MediumSmooth,                           ! Roughness
  0.0254,                                 ! Thickness {m}
  0.1211,                                 ! Conductivity {W/m-K}
  593,                                    ! Density {kg/m3}
  2510,                                   ! Specific Heat {J/kg-K}
  0.9,                                    ! Thermal Absorptance
  0.78,                                   ! Solar Absorptance
  0.78;                                   ! Visible Absorptance

OS:Material,
  {48fca715-73c6-4e50-90c6-2a200488ac8a}, ! Handle
  Roof Insulation [107],                  ! Name
  MediumRough,                            ! Roughness
  0.0840847,                              ! Thickness {m}
  0.049,                                  ! Conductivity {W/m-K}
  265,                                    ! Density {kg/m3}
  836.8,                                  ! Specific Heat {J/kg-K}
  0.9,                                    ! Thermal Absorptance
  0.7,                                    ! Solar Absorptance
  0.7;                                    ! Visible Absorptance

OS:Material,
  {24c17487-e1c5-4f7c-b400-116f63ce9596}, ! Handle
  1/2IN Gypsum,                           ! Name
  Smooth,                                 ! Roughness
  0.01271,                                ! Thickness {m}
  0.16,                                   ! Conductivity {W/m-K}
  784.9,                                  ! Density {kg/m3}
  830,                                    ! Specific Heat {J/kg-K}
  0.9,                                    ! Thermal Absorptance
  0.92,                                   ! Solar Absorptance
  0.92;                                   ! Visible Absorptance

OS:ComponentCost:LineItem,
  {1cf0402d-28cf-4bdc-aa5d-6ffc7079f334}, ! Handle
  Title 24-2008 Nonres 6 Roof Attic and Other, ! Name
  ,                                       ! Type
  Construction,                           ! Line Item Type
  Title 24-2008 Nonres 6 Roof Attic and Other, ! Item Name
  ,                                       ! Object End Use Key
  ,                                       ! Quantity {dimensionless}
  31.309,                                 ! Material Cost {$}
  CostPerArea;                            ! Material Cost Units

OS:ComponentData,
  {c8851c61-0295-4489-b039-4af130176592}, ! Handle
  Component Data 1,                       ! Name
  {24f9f192-480d-4afd-ba12-3b9f63d54997}, ! UUID
  {8cff5e1a-11f8-4590-abd1-60c633c8e2d9}, ! Version UUID
  1363982026,                             ! Creation Timestamp
  1363982026,                             ! Version Timestamp
  {d4e38750-eff3-4b92-b256-6322835a1dbf}, ! Name of Object 1
  {1acbcf47-16ea-45b1-a9a4-9f5bf7df0902}, ! Name of Object 2
  {eadacd72-e3ca-40f2-8f5f-a3b626f846b7}, ! Name of Object 3
  {48fca715-73c6-4e50-90c6-2a200488ac8a}, ! Name of Object 4
  {24c17487-e1c5-4f7c-b400-116f63ce9596}, ! Name of Object 5
  {1cf0402d-28cf-4bdc-aa5d-6ffc7079f334}; ! Name of Object 6

