
OS:Version,
  {464070ba-2769-4f46-9548-151820b68694}, ! Handle
  0.9.3;                                  ! Version Identifier

OS:Material,
  {549d2239-ec99-4e4b-8a06-06e8440958bf}, ! Handle
  Wood Shingles,                          ! Name
  VeryRough,                              ! Roughness
  0.0178,                                 ! Thickness {m}
  0.115,                                  ! Conductivity {W/m-K}
  513,                                    ! Density {kg/m3}
  1255,                                   ! Specific Heat {J/kg-K}
  0.9,                                    ! Thermal Absorptance
  0.78,                                   ! Solar Absorptance
  0.78;                                   ! Visible Absorptance

OS:Material,
  {b894bf92-1a88-42a1-82ed-cb5a3e34a6d5}, ! Handle
  1IN Wood Decking,                       ! Name
  MediumSmooth,                           ! Roughness
  0.0254,                                 ! Thickness {m}
  0.1211,                                 ! Conductivity {W/m-K}
  593,                                    ! Density {kg/m3}
  2510,                                   ! Specific Heat {J/kg-K}
  0.9,                                    ! Thermal Absorptance
  0.78,                                   ! Solar Absorptance
  0.78;                                   ! Visible Absorptance

OS:Construction,
  {9431c3cb-c808-4661-afc5-b7db19eb9f97}, ! Handle
  90.1-1999 Nonres B21 Roof Attic and Other, ! Name
  ,                                       ! Surface Rendering Name
  {549d2239-ec99-4e4b-8a06-06e8440958bf}, ! Layer 1
  {b894bf92-1a88-42a1-82ed-cb5a3e34a6d5}, ! Layer 2
  {d2574b08-77af-41f6-b84b-1fafb2ddc566}, ! Layer 3
  {5ffd71a8-000d-4695-8c73-8d17442388fe}; ! Layer 4

OS:Material,
  {d2574b08-77af-41f6-b84b-1fafb2ddc566}, ! Handle
  Roof Insulation [5],                    ! Name
  MediumRough,                            ! Roughness
  0.286906,                               ! Thickness {m}
  0.049,                                  ! Conductivity {W/m-K}
  265,                                    ! Density {kg/m3}
  836.8,                                  ! Specific Heat {J/kg-K}
  0.9,                                    ! Thermal Absorptance
  0.7,                                    ! Solar Absorptance
  0.7;                                    ! Visible Absorptance

OS:Material,
  {5ffd71a8-000d-4695-8c73-8d17442388fe}, ! Handle
  1/2IN Gypsum,                           ! Name
  Smooth,                                 ! Roughness
  0.01271,                                ! Thickness {m}
  0.16,                                   ! Conductivity {W/m-K}
  784.9,                                  ! Density {kg/m3}
  830,                                    ! Specific Heat {J/kg-K}
  0.9,                                    ! Thermal Absorptance
  0.92,                                   ! Solar Absorptance
  0.92;                                   ! Visible Absorptance

OS:ComponentCost:LineItem,
  {c7284266-b409-4910-aa99-7272f406e65e}, ! Handle
  90.1-1999 Nonres B21 Roof Attic and Other, ! Name
  ,                                       ! Type
  Construction,                           ! Line Item Type
  90.1-1999 Nonres B21 Roof Attic and Other, ! Item Name
  ,                                       ! Object End Use Key
  ,                                       ! Quantity {dimensionless}
  34.757,                                 ! Material Cost {$}
  CostPerArea;                            ! Material Cost Units

