
OS:Version,
  {f1f2840a-2345-4cc2-ab73-3c5d71747945}, ! Handle
  0.9.3;                                  ! Version Identifier

OS:Construction,
  {cfa9e964-a04f-4031-bdbd-ac9bfda48862}, ! Handle
  AEDG-SmOffice 8A Roof Attic and Other,  ! Name
  ,                                       ! Surface Rendering Name
  {a4ce0e45-5d4a-4221-a448-73744b4838e6}, ! Layer 1
  {1964fc3a-3239-4dd3-8b75-3ca778bf7645}, ! Layer 2
  {408b316d-c303-474c-a4ed-019e06e2bf08}, ! Layer 3
  {37caaa3c-fd97-45dd-bbb3-7fbe55ee98a0}; ! Layer 4

OS:Material,
  {a4ce0e45-5d4a-4221-a448-73744b4838e6}, ! Handle
  Wood Shingles,                          ! Name
  VeryRough,                              ! Roughness
  0.0178,                                 ! Thickness {m}
  0.115,                                  ! Conductivity {W/m-K}
  513,                                    ! Density {kg/m3}
  1255,                                   ! Specific Heat {J/kg-K}
  0.9,                                    ! Thermal Absorptance
  0.78,                                   ! Solar Absorptance
  0.78;                                   ! Visible Absorptance

OS:Material,
  {1964fc3a-3239-4dd3-8b75-3ca778bf7645}, ! Handle
  1IN Wood Decking,                       ! Name
  MediumSmooth,                           ! Roughness
  0.0254,                                 ! Thickness {m}
  0.1211,                                 ! Conductivity {W/m-K}
  593,                                    ! Density {kg/m3}
  2510,                                   ! Specific Heat {J/kg-K}
  0.9,                                    ! Thermal Absorptance
  0.78,                                   ! Solar Absorptance
  0.78;                                   ! Visible Absorptance

OS:Material,
  {408b316d-c303-474c-a4ed-019e06e2bf08}, ! Handle
  Roof Insulation [11],                   ! Name
  MediumRough,                            ! Roughness
  0.474289,                               ! Thickness {m}
  0.049,                                  ! Conductivity {W/m-K}
  265,                                    ! Density {kg/m3}
  836.8,                                  ! Specific Heat {J/kg-K}
  0.9,                                    ! Thermal Absorptance
  0.7,                                    ! Solar Absorptance
  0.7;                                    ! Visible Absorptance

OS:Material,
  {37caaa3c-fd97-45dd-bbb3-7fbe55ee98a0}, ! Handle
  1/2IN Gypsum,                           ! Name
  Smooth,                                 ! Roughness
  0.01271,                                ! Thickness {m}
  0.16,                                   ! Conductivity {W/m-K}
  784.9,                                  ! Density {kg/m3}
  830,                                    ! Specific Heat {J/kg-K}
  0.9,                                    ! Thermal Absorptance
  0.92,                                   ! Solar Absorptance
  0.92;                                   ! Visible Absorptance

OS:ComponentCost:LineItem,
  {f7f51f72-410f-4224-bfdb-4cf4de4cc659}, ! Handle
  AEDG-SmOffice 8A Roof Attic and Other,  ! Name
  ,                                       ! Type
  Construction,                           ! Line Item Type
  AEDG-SmOffice 8A Roof Attic and Other,  ! Item Name
  ,                                       ! Object End Use Key
  ,                                       ! Quantity {dimensionless}
  38.449,                                 ! Material Cost {$}
  CostPerArea;                            ! Material Cost Units

OS:ComponentData,
  {0570fd67-2079-4335-a722-82a53d8efe7a}, ! Handle
  Component Data 1,                       ! Name
  {cb6b5d38-76f2-4254-8667-ab876cdfaa0d}, ! UUID
  {e262092b-7b8c-4d68-88c8-adb9885fe2b9}, ! Version UUID
  1363981967,                             ! Creation Timestamp
  1363981967,                             ! Version Timestamp
  {cfa9e964-a04f-4031-bdbd-ac9bfda48862}, ! Name of Object 1
  {a4ce0e45-5d4a-4221-a448-73744b4838e6}, ! Name of Object 2
  {1964fc3a-3239-4dd3-8b75-3ca778bf7645}, ! Name of Object 3
  {408b316d-c303-474c-a4ed-019e06e2bf08}, ! Name of Object 4
  {37caaa3c-fd97-45dd-bbb3-7fbe55ee98a0}, ! Name of Object 5
  {f7f51f72-410f-4224-bfdb-4cf4de4cc659}; ! Name of Object 6

