
OS:Version,
  {51281e90-a67f-4bd1-9f0a-0e499de1b268}, ! Handle
  0.9.3;                                  ! Version Identifier

OS:Material,
  {8b039dc8-c840-47ec-aafb-8fc07faa804c}, ! Handle
  Roof Insulation [11],                   ! Name
  MediumRough,                            ! Roughness
  0.474289,                               ! Thickness {m}
  0.049,                                  ! Conductivity {W/m-K}
  265,                                    ! Density {kg/m3}
  836.8,                                  ! Specific Heat {J/kg-K}
  0.9,                                    ! Thermal Absorptance
  0.7,                                    ! Solar Absorptance
  0.7;                                    ! Visible Absorptance

OS:Material,
  {f17cbafb-b55c-47d8-942f-b485da50967a}, ! Handle
  Wood Shingles,                          ! Name
  VeryRough,                              ! Roughness
  0.0178,                                 ! Thickness {m}
  0.115,                                  ! Conductivity {W/m-K}
  513,                                    ! Density {kg/m3}
  1255,                                   ! Specific Heat {J/kg-K}
  0.9,                                    ! Thermal Absorptance
  0.78,                                   ! Solar Absorptance
  0.78;                                   ! Visible Absorptance

OS:Construction,
  {79fd2308-ff38-4b56-ac89-11dade64c0b6}, ! Handle
  AEDG-SmOffice 8A Roof Attic and Other,  ! Name
  ,                                       ! Surface Rendering Name
  {f17cbafb-b55c-47d8-942f-b485da50967a}, ! Layer 1
  {646cff43-492d-42dc-9a46-c52a5c7e00d4}, ! Layer 2
  {8b039dc8-c840-47ec-aafb-8fc07faa804c}, ! Layer 3
  {28daadec-3e1e-4304-bac8-bfde7c5ed157}; ! Layer 4

OS:Material,
  {646cff43-492d-42dc-9a46-c52a5c7e00d4}, ! Handle
  1IN Wood Decking,                       ! Name
  MediumSmooth,                           ! Roughness
  0.0254,                                 ! Thickness {m}
  0.1211,                                 ! Conductivity {W/m-K}
  593,                                    ! Density {kg/m3}
  2510,                                   ! Specific Heat {J/kg-K}
  0.9,                                    ! Thermal Absorptance
  0.78,                                   ! Solar Absorptance
  0.78;                                   ! Visible Absorptance

OS:Material,
  {28daadec-3e1e-4304-bac8-bfde7c5ed157}, ! Handle
  1/2IN Gypsum,                           ! Name
  Smooth,                                 ! Roughness
  0.01271,                                ! Thickness {m}
  0.16,                                   ! Conductivity {W/m-K}
  784.9,                                  ! Density {kg/m3}
  830,                                    ! Specific Heat {J/kg-K}
  0.9,                                    ! Thermal Absorptance
  0.92,                                   ! Solar Absorptance
  0.92;                                   ! Visible Absorptance

OS:ComponentCost:LineItem,
  {00f2af8c-149c-4e7e-adda-689f60d51a45}, ! Handle
  AEDG-SmOffice 8A Roof Attic and Other,  ! Name
  ,                                       ! Type
  Construction,                           ! Line Item Type
  AEDG-SmOffice 8A Roof Attic and Other,  ! Item Name
  ,                                       ! Object End Use Key
  ,                                       ! Quantity {dimensionless}
  38.449,                                 ! Material Cost {$}
  CostPerArea;                            ! Material Cost Units

