
OS:Version,
  {da64ae44-b809-4bc9-9537-2f1982b1249f}, ! Handle
  0.9.3;                                  ! Version Identifier

OS:ComponentCost:LineItem,
  {57f089f8-e954-426a-a948-8c53557f286d}, ! Handle
  189.1-2009 Nonres 8A Skylight without Curb, ! Name
  ,                                       ! Type
  Construction,                           ! Line Item Type
  189.1-2009 Nonres 8A Skylight without Curb, ! Item Name
  ,                                       ! Object End Use Key
  ,                                       ! Quantity {dimensionless}
  600.037,                                ! Material Cost {$}
  CostPerArea;                            ! Material Cost Units

OS:WindowMaterial:Glazing,
  {3b2946e4-f9c2-4297-9e2b-9fe49549d638}, ! Handle
  Theoretical Glass [222],                ! Name
  SpectralAverage,                        ! Optical Data Type
  ,                                       ! Window Glass Spectral Data Set Name
  0.003,                                  ! Thickness {m}
  0.43998,                                ! Solar Transmittance at Normal Incidence
  0.51002,                                ! Front Side Solar Reflectance at Normal Incidence
  0.51002,                                ! Back Side Solar Reflectance at Normal Incidence
  0.460166,                               ! Visible Transmittance at Normal Incidence
  0.489834,                               ! Front Side Visible Reflectance at Normal Incidence
  0.489834,                               ! Back Side Visible Reflectance at Normal Incidence
  0,                                      ! Infrared Transmittance at Normal Incidence
  0.9,                                    ! Front Side Infrared Hemispherical Emissivity
  0.9,                                    ! Back Side Infrared Hemispherical Emissivity
  0.0133196;                              ! Conductivity {W/m-K}

OS:Construction,
  {19590dc4-4044-4b2b-8b4b-2f33ce39eeb6}, ! Handle
  189.1-2009 Nonres 8A Skylight without Curb, ! Name
  ,                                       ! Surface Rendering Name
  {3b2946e4-f9c2-4297-9e2b-9fe49549d638}; ! Layer 1

