
OS:Version,
  {f847eba5-fd9c-4afe-b601-b3ac715dc7ef}, ! Handle
  0.9.3;                                  ! Version Identifier

OS:Construction,
  {de09dbb3-b24f-4a45-ac4e-e87b0634a11a}, ! Handle
  90.1 Constructions Roof Attic and Other R-38.0, ! Name
  ,                                       ! Surface Rendering Name
  {4c6ba789-746e-4ecb-8d6b-dc3617f421cc}, ! Layer 1
  {d1cf757c-d98a-4885-bf19-a5b8d5902074}, ! Layer 2
  {a57d6539-15b5-4099-92d3-051d40820aae}, ! Layer 3
  {ce9ca612-8966-4654-83cd-6f6607529b39}; ! Layer 4

OS:Material,
  {4c6ba789-746e-4ecb-8d6b-dc3617f421cc}, ! Handle
  Wood Shingles,                          ! Name
  VeryRough,                              ! Roughness
  0.0178,                                 ! Thickness {m}
  0.115,                                  ! Conductivity {W/m-K}
  513,                                    ! Density {kg/m3}
  1255,                                   ! Specific Heat {J/kg-K}
  0.9,                                    ! Thermal Absorptance
  0.78,                                   ! Solar Absorptance
  0.78;                                   ! Visible Absorptance

OS:Material,
  {d1cf757c-d98a-4885-bf19-a5b8d5902074}, ! Handle
  1IN Wood Decking,                       ! Name
  MediumSmooth,                           ! Roughness
  0.0254,                                 ! Thickness {m}
  0.1211,                                 ! Conductivity {W/m-K}
  593,                                    ! Density {kg/m3}
  2510,                                   ! Specific Heat {J/kg-K}
  0.9,                                    ! Thermal Absorptance
  0.78,                                   ! Solar Absorptance
  0.78;                                   ! Visible Absorptance

OS:Material,
  {a57d6539-15b5-4099-92d3-051d40820aae}, ! Handle
  Roof Insulation [75],                   ! Name
  MediumRough,                            ! Roughness
  0.288214,                               ! Thickness {m}
  0.049,                                  ! Conductivity {W/m-K}
  265,                                    ! Density {kg/m3}
  836.8,                                  ! Specific Heat {J/kg-K}
  0.9,                                    ! Thermal Absorptance
  0.7,                                    ! Solar Absorptance
  0.7;                                    ! Visible Absorptance

OS:Material,
  {ce9ca612-8966-4654-83cd-6f6607529b39}, ! Handle
  1/2IN Gypsum,                           ! Name
  Smooth,                                 ! Roughness
  0.01271,                                ! Thickness {m}
  0.16,                                   ! Conductivity {W/m-K}
  784.9,                                  ! Density {kg/m3}
  830,                                    ! Specific Heat {J/kg-K}
  0.9,                                    ! Thermal Absorptance
  0.92,                                   ! Solar Absorptance
  0.92;                                   ! Visible Absorptance

OS:ComponentCost:LineItem,
  {364c670b-1bae-43a6-9ba6-9cb8c80b2026}, ! Handle
  90.1 Constructions Roof Attic and Other R-38.0, ! Name
  ,                                       ! Type
  Construction,                           ! Line Item Type
  90.1 Constructions Roof Attic and Other R-38.0, ! Item Name
  ,                                       ! Object End Use Key
  ,                                       ! Quantity {dimensionless}
  34.78,                                  ! Material Cost {$}
  CostPerArea;                            ! Material Cost Units

