
OS:Version,
  {f04f92c8-6d21-40ba-9de0-b792b498c5f0}, ! Handle
  0.9.3;                                  ! Version Identifier

OS:Material,
  {463bcbbc-1512-4051-83e1-bb8f63f27455}, ! Handle
  1/2IN Gypsum,                           ! Name
  Smooth,                                 ! Roughness
  0.01271,                                ! Thickness {m}
  0.16,                                   ! Conductivity {W/m-K}
  784.9,                                  ! Density {kg/m3}
  830,                                    ! Specific Heat {J/kg-K}
  0.9,                                    ! Thermal Absorptance
  0.92,                                   ! Solar Absorptance
  0.92;                                   ! Visible Absorptance

OS:Material,
  {8f6a8e0e-b93a-4c74-8133-a7494421b196}, ! Handle
  1IN Stucco,                             ! Name
  Smooth,                                 ! Roughness
  0.0253,                                 ! Thickness {m}
  0.6918,                                 ! Conductivity {W/m-K}
  1858,                                   ! Density {kg/m3}
  837,                                    ! Specific Heat {J/kg-K}
  0.9,                                    ! Thermal Absorptance
  0.92,                                   ! Solar Absorptance
  0.92;                                   ! Visible Absorptance

OS:Construction,
  {04515aec-1ca0-4357-a253-6e6e2a3d5def}, ! Handle
  90.1-1999 Res B20 Ext Wall Mass,        ! Name
  ,                                       ! Surface Rendering Name
  {8f6a8e0e-b93a-4c74-8133-a7494421b196}, ! Layer 1
  {491887e9-f7d0-4359-b435-7e9591bfa373}, ! Layer 2
  {e92e4c1e-eeea-4082-8801-1a174077334d}, ! Layer 3
  {463bcbbc-1512-4051-83e1-bb8f63f27455}; ! Layer 4

OS:Material,
  {491887e9-f7d0-4359-b435-7e9591bfa373}, ! Handle
  8IN Concrete HW,                        ! Name
  MediumRough,                            ! Roughness
  0.2033,                                 ! Thickness {m}
  1.7296,                                 ! Conductivity {W/m-K}
  2243,                                   ! Density {kg/m3}
  837,                                    ! Specific Heat {J/kg-K}
  0.9,                                    ! Thermal Absorptance
  0.65,                                   ! Solar Absorptance
  0.65;                                   ! Visible Absorptance

OS:Material,
  {e92e4c1e-eeea-4082-8801-1a174077334d}, ! Handle
  Wall Insulation [8],                    ! Name
  MediumRough,                            ! Roughness
  0.067929,                               ! Thickness {m}
  0.0432,                                 ! Conductivity {W/m-K}
  91,                                     ! Density {kg/m3}
  837,                                    ! Specific Heat {J/kg-K}
  0.9,                                    ! Thermal Absorptance
  0.5,                                    ! Solar Absorptance
  0.5;                                    ! Visible Absorptance

OS:ComponentCost:LineItem,
  {188489e0-1f97-476e-ba9d-d7e38c713b0f}, ! Handle
  90.1-1999 Res B20 Ext Wall Mass,        ! Name
  ,                                       ! Type
  Construction,                           ! Line Item Type
  90.1-1999 Res B20 Ext Wall Mass,        ! Item Name
  ,                                       ! Object End Use Key
  ,                                       ! Quantity {dimensionless}
  65.826,                                 ! Material Cost {$}
  CostPerArea;                            ! Material Cost Units

