
OS:Version,
  {e7391e6f-89a9-48d5-84c2-561e490829ce}, ! Handle
  0.9.3;                                  ! Version Identifier

OS:Construction,
  {068e3024-51ca-4888-bc86-ffc41132d274}, ! Handle
  AEDG-SmOffice 5B Ext Slab Unheated - 8in Slab without Carpet, ! Name
  ,                                       ! Surface Rendering Name
  {def8ebe4-debc-4dcd-8acc-a98ff3fd7f04}; ! Layer 1

OS:Material,
  {def8ebe4-debc-4dcd-8acc-a98ff3fd7f04}, ! Handle
  MAT-CC05 8 HW CONCRETE,                 ! Name
  Rough,                                  ! Roughness
  0.20321,                                ! Thickness {m}
  1.311,                                  ! Conductivity {W/m-K}
  2240,                                   ! Density {kg/m3}
  836.8,                                  ! Specific Heat {J/kg-K}
  0.9,                                    ! Thermal Absorptance
  0.7,                                    ! Solar Absorptance
  0.7;                                    ! Visible Absorptance

OS:ComponentCost:LineItem,
  {3c41b74d-36c2-473b-9a56-0bb3d685219d}, ! Handle
  AEDG-SmOffice 5B Ext Slab Unheated - 8in Slab without Carpet, ! Name
  ,                                       ! Type
  Construction,                           ! Line Item Type
  AEDG-SmOffice 5B Ext Slab Unheated - 8in Slab without Carpet, ! Item Name
  ,                                       ! Object End Use Key
  ,                                       ! Quantity {dimensionless}
  45.52,                                  ! Material Cost {$}
  CostPerArea;                            ! Material Cost Units

