
OS:Version,
  {46e77be8-c020-4503-a8d3-3235c5018bf1}, !- Handle
  1.1.0;                                  !- Version Identifier

OS:Construction,
  {bf3d1750-8b09-4430-8f74-5674cb3b9fdc}, !- Handle
  Dbl Bronze 6mm/6mm Air,                 !- Name
  ,                                       !- Surface Rendering Name
  {9d07e58f-c753-46be-8244-dabf3b20ab06}, !- Layer 1
  {05714e8c-3e46-41c5-b215-6439cb42ce72}, !- Layer 2
  {960498d7-971c-4ada-b3e3-f7e60f849108}; !- Layer 3

OS:WindowMaterial:Glazing,
  {9d07e58f-c753-46be-8244-dabf3b20ab06}, !- Handle
  BRONZE 6MM,                             !- Name
  SpectralAverage,                        !- Optical Data Type
  ,                                       !- Window Glass Spectral Data Set Name
  0.006,                                  !- Thickness {m}
  0.482,                                  !- Solar Transmittance at Normal Incidence
  0.054,                                  !- Front Side Solar Reflectance at Normal Incidence
  0.054,                                  !- Back Side Solar Reflectance at Normal Incidence
  0.534,                                  !- Visible Transmittance at Normal Incidence
  0.057,                                  !- Front Side Visible Reflectance at Normal Incidence
  0.057,                                  !- Back Side Visible Reflectance at Normal Incidence
  0,                                      !- Infrared Transmittance at Normal Incidence
  0.84,                                   !- Front Side Infrared Hemispherical Emissivity
  0.84,                                   !- Back Side Infrared Hemispherical Emissivity
  0.9;                                    !- Conductivity {W/m-K}

OS:WindowMaterial:Gas,
  {05714e8c-3e46-41c5-b215-6439cb42ce72}, !- Handle
  AIR 6MM,                                !- Name
  Air,                                    !- Gas Type
  0.0063;                                 !- Thickness {m}

OS:WindowMaterial:Glazing,
  {960498d7-971c-4ada-b3e3-f7e60f849108}, !- Handle
  CLEAR 6MM,                              !- Name
  SpectralAverage,                        !- Optical Data Type
  ,                                       !- Window Glass Spectral Data Set Name
  0.006,                                  !- Thickness {m}
  0.775,                                  !- Solar Transmittance at Normal Incidence
  0.071,                                  !- Front Side Solar Reflectance at Normal Incidence
  0.071,                                  !- Back Side Solar Reflectance at Normal Incidence
  0.881,                                  !- Visible Transmittance at Normal Incidence
  0.08,                                   !- Front Side Visible Reflectance at Normal Incidence
  0.08,                                   !- Back Side Visible Reflectance at Normal Incidence
  0,                                      !- Infrared Transmittance at Normal Incidence
  0.84,                                   !- Front Side Infrared Hemispherical Emissivity
  0.84,                                   !- Back Side Infrared Hemispherical Emissivity
  0.9;                                    !- Conductivity {W/m-K}

