
OS:Version,
  {d50a8b95-ed57-48b9-bedb-f27dd9d2086e}, ! Handle
  0.9.3;                                  ! Version Identifier

OS:Material,
  {c52ca692-f3ca-4cf7-a70b-c88ee586aba7}, ! Handle
  Wall Insulation [6],                    ! Name
  MediumRough,                            ! Roughness
  0.0678449,                              ! Thickness {m}
  0.045,                                  ! Conductivity {W/m-K}
  265,                                    ! Density {kg/m3}
  836.8,                                  ! Specific Heat {J/kg-K}
  0.9,                                    ! Thermal Absorptance
  0.7,                                    ! Solar Absorptance
  0.7;                                    ! Visible Absorptance

OS:Construction,
  {293d910e-60e2-45b0-a9d9-558a3fa33354}, ! Handle
  90.1-2004 Res 3C Ext Wall Steel-Framed, ! Name
  ,                                       ! Surface Rendering Name
  {fc4d59d5-e8d9-473b-93c6-181285ed6109}, ! Layer 1
  {c52ca692-f3ca-4cf7-a70b-c88ee586aba7}, ! Layer 2
  {312cb238-a535-47a2-b12e-6bb9b4b6f6c3}; ! Layer 3

OS:Material:NoMass,
  {fc4d59d5-e8d9-473b-93c6-181285ed6109}, ! Handle
  MAT-SHEATH,                             ! Name
  Rough,                                  ! Roughness
  0.36256,                                ! Thermal Resistance {m2-K/W}
  0.9,                                    ! Thermal Absorptance
  0.7,                                    ! Solar Absorptance
  0.7;                                    ! Visible Absorptance

OS:Material,
  {312cb238-a535-47a2-b12e-6bb9b4b6f6c3}, ! Handle
  1/2IN Gypsum,                           ! Name
  Smooth,                                 ! Roughness
  0.01271,                                ! Thickness {m}
  0.16,                                   ! Conductivity {W/m-K}
  784.9,                                  ! Density {kg/m3}
  830,                                    ! Specific Heat {J/kg-K}
  0.9,                                    ! Thermal Absorptance
  0.92,                                   ! Solar Absorptance
  0.92;                                   ! Visible Absorptance

OS:ComponentCost:LineItem,
  {1d852ccd-ffb1-492e-842c-8a1de557dd7e}, ! Handle
  90.1-2004 Res 3C Ext Wall Steel-Framed, ! Name
  ,                                       ! Type
  Construction,                           ! Line Item Type
  90.1-2004 Res 3C Ext Wall Steel-Framed, ! Item Name
  ,                                       ! Object End Use Key
  ,                                       ! Quantity {dimensionless}
  91.749,                                 ! Material Cost {$}
  CostPerArea;                            ! Material Cost Units

