
OS:Version,
  {1ae1c0bf-354d-445f-b1e6-1198c0cd839d}, ! Handle
  0.9.3;                                  ! Version Identifier

OS:Construction,
  {6beabfd6-9a60-4afe-9641-b5c2f1ae4d55}, ! Handle
  90.1-2001 Nonres B18 Ext Wall Mass,     ! Name
  ,                                       ! Surface Rendering Name
  {43e28cec-d013-4694-97fe-1f888cf994ea}, ! Layer 1
  {392189d9-45d9-40d1-91ed-dd3e74492137}, ! Layer 2
  {bb5505d5-0090-4542-93c0-2a9276c798fd}, ! Layer 3
  {313310c3-8cfc-4903-9e57-a05d13d73b17}; ! Layer 4

OS:Material,
  {43e28cec-d013-4694-97fe-1f888cf994ea}, ! Handle
  1IN Stucco,                             ! Name
  Smooth,                                 ! Roughness
  0.0253,                                 ! Thickness {m}
  0.6918,                                 ! Conductivity {W/m-K}
  1858,                                   ! Density {kg/m3}
  837,                                    ! Specific Heat {J/kg-K}
  0.9,                                    ! Thermal Absorptance
  0.92,                                   ! Solar Absorptance
  0.92;                                   ! Visible Absorptance

OS:Material,
  {392189d9-45d9-40d1-91ed-dd3e74492137}, ! Handle
  8IN Concrete HW,                        ! Name
  MediumRough,                            ! Roughness
  0.2033,                                 ! Thickness {m}
  1.7296,                                 ! Conductivity {W/m-K}
  2243,                                   ! Density {kg/m3}
  837,                                    ! Specific Heat {J/kg-K}
  0.9,                                    ! Thermal Absorptance
  0.65,                                   ! Solar Absorptance
  0.65;                                   ! Visible Absorptance

OS:Material,
  {bb5505d5-0090-4542-93c0-2a9276c798fd}, ! Handle
  Wall Insulation [5],                    ! Name
  MediumRough,                            ! Roughness
  0.0453274,                              ! Thickness {m}
  0.0432,                                 ! Conductivity {W/m-K}
  91,                                     ! Density {kg/m3}
  837,                                    ! Specific Heat {J/kg-K}
  0.9,                                    ! Thermal Absorptance
  0.5,                                    ! Solar Absorptance
  0.5;                                    ! Visible Absorptance

OS:Material,
  {313310c3-8cfc-4903-9e57-a05d13d73b17}, ! Handle
  1/2IN Gypsum,                           ! Name
  Smooth,                                 ! Roughness
  0.01271,                                ! Thickness {m}
  0.16,                                   ! Conductivity {W/m-K}
  784.9,                                  ! Density {kg/m3}
  830,                                    ! Specific Heat {J/kg-K}
  0.9,                                    ! Thermal Absorptance
  0.92,                                   ! Solar Absorptance
  0.92;                                   ! Visible Absorptance

OS:ComponentCost:LineItem,
  {7f037d5a-5245-4b3c-8069-fb25d25da350}, ! Handle
  90.1-2001 Nonres B18 Ext Wall Mass,     ! Name
  ,                                       ! Type
  Construction,                           ! Line Item Type
  90.1-2001 Nonres B18 Ext Wall Mass,     ! Item Name
  ,                                       ! Object End Use Key
  ,                                       ! Quantity {dimensionless}
  61.418,                                 ! Material Cost {$}
  CostPerArea;                            ! Material Cost Units

OS:ComponentData,
  {076d5d7d-504a-4330-926b-7cc5b0d121b7}, ! Handle
  Component Data 1,                       ! Name
  {a48394a4-9681-4eec-ab18-9300c666f23d}, ! UUID
  {0d90c3e0-59c8-465d-b462-2b320543270d}, ! Version UUID
  1363981387,                             ! Creation Timestamp
  1363981387,                             ! Version Timestamp
  {6beabfd6-9a60-4afe-9641-b5c2f1ae4d55}, ! Name of Object 1
  {43e28cec-d013-4694-97fe-1f888cf994ea}, ! Name of Object 2
  {392189d9-45d9-40d1-91ed-dd3e74492137}, ! Name of Object 3
  {bb5505d5-0090-4542-93c0-2a9276c798fd}, ! Name of Object 4
  {313310c3-8cfc-4903-9e57-a05d13d73b17}, ! Name of Object 5
  {7f037d5a-5245-4b3c-8069-fb25d25da350}; ! Name of Object 6

