
OS:Version,
  {0e5e9992-08e1-4246-8f91-546b1cc117e8}, ! Handle
  0.9.3;                                  ! Version Identifier

OS:Material,
  {bf0edad1-83b6-4a4e-8001-2826189fc946}, ! Handle
  8IN Concrete HW,                        ! Name
  MediumRough,                            ! Roughness
  0.2033,                                 ! Thickness {m}
  1.7296,                                 ! Conductivity {W/m-K}
  2243,                                   ! Density {kg/m3}
  837,                                    ! Specific Heat {J/kg-K}
  0.9,                                    ! Thermal Absorptance
  0.65,                                   ! Solar Absorptance
  0.65;                                   ! Visible Absorptance

OS:ComponentCost:LineItem,
  {389f9c75-1ea7-488f-903f-94db63edfeec}, ! Handle
  90.1-2001 Nonres B18 Ext Wall Mass,     ! Name
  ,                                       ! Type
  Construction,                           ! Line Item Type
  90.1-2001 Nonres B18 Ext Wall Mass,     ! Item Name
  ,                                       ! Object End Use Key
  ,                                       ! Quantity {dimensionless}
  61.418,                                 ! Material Cost {$}
  CostPerArea;                            ! Material Cost Units

OS:Material,
  {47eeb7d8-7653-43c8-bf52-d7bfc126027f}, ! Handle
  1/2IN Gypsum,                           ! Name
  Smooth,                                 ! Roughness
  0.01271,                                ! Thickness {m}
  0.16,                                   ! Conductivity {W/m-K}
  784.9,                                  ! Density {kg/m3}
  830,                                    ! Specific Heat {J/kg-K}
  0.9,                                    ! Thermal Absorptance
  0.92,                                   ! Solar Absorptance
  0.92;                                   ! Visible Absorptance

OS:Construction,
  {2660b3bf-a6a6-4c29-9952-a5490d91714d}, ! Handle
  90.1-2001 Nonres B18 Ext Wall Mass,     ! Name
  ,                                       ! Surface Rendering Name
  {04631106-df75-44d5-9a1a-88791621df40}, ! Layer 1
  {bf0edad1-83b6-4a4e-8001-2826189fc946}, ! Layer 2
  {c5e27bd0-58d5-43b9-b873-6c9b289efcc2}, ! Layer 3
  {47eeb7d8-7653-43c8-bf52-d7bfc126027f}; ! Layer 4

OS:Material,
  {04631106-df75-44d5-9a1a-88791621df40}, ! Handle
  1IN Stucco,                             ! Name
  Smooth,                                 ! Roughness
  0.0253,                                 ! Thickness {m}
  0.6918,                                 ! Conductivity {W/m-K}
  1858,                                   ! Density {kg/m3}
  837,                                    ! Specific Heat {J/kg-K}
  0.9,                                    ! Thermal Absorptance
  0.92,                                   ! Solar Absorptance
  0.92;                                   ! Visible Absorptance

OS:Material,
  {c5e27bd0-58d5-43b9-b873-6c9b289efcc2}, ! Handle
  Wall Insulation [5],                    ! Name
  MediumRough,                            ! Roughness
  0.0453274,                              ! Thickness {m}
  0.0432,                                 ! Conductivity {W/m-K}
  91,                                     ! Density {kg/m3}
  837,                                    ! Specific Heat {J/kg-K}
  0.9,                                    ! Thermal Absorptance
  0.5,                                    ! Solar Absorptance
  0.5;                                    ! Visible Absorptance

