
OS:Version,
  {a81b1945-768d-4e19-ae12-59ffc80632f9}, ! Handle
  0.9.3;                                  ! Version Identifier

OS:Construction,
  {1929f700-4ba8-462b-af84-aaa0e31566d0}, ! Handle
  90.1-2001 Res B25 Ext Slab Unheated - 8in Slab with Carpet, ! Name
  ,                                       ! Surface Rendering Name
  {e1dc9953-b742-4e0f-bc76-8790bc1df47a}, ! Layer 1
  {9f345925-eec4-4744-8e21-fee5efeb5b1f}; ! Layer 2

OS:Material,
  {e1dc9953-b742-4e0f-bc76-8790bc1df47a}, ! Handle
  MAT-CC05 8 HW CONCRETE,                 ! Name
  Rough,                                  ! Roughness
  0.20321,                                ! Thickness {m}
  1.311,                                  ! Conductivity {W/m-K}
  2240,                                   ! Density {kg/m3}
  836.8,                                  ! Specific Heat {J/kg-K}
  0.9,                                    ! Thermal Absorptance
  0.7,                                    ! Solar Absorptance
  0.7;                                    ! Visible Absorptance

OS:Material:NoMass,
  {9f345925-eec4-4744-8e21-fee5efeb5b1f}, ! Handle
  CP02 CARPET PAD,                        ! Name
  VeryRough,                              ! Roughness
  0.21648,                                ! Thermal Resistance {m2-K/W}
  0.9,                                    ! Thermal Absorptance
  0.7,                                    ! Solar Absorptance
  0.8;                                    ! Visible Absorptance

OS:ComponentCost:LineItem,
  {940fca12-4b64-4752-bae1-c31d6dce3740}, ! Handle
  90.1-2001 Res B25 Ext Slab Unheated - 8in Slab with Carpet, ! Name
  ,                                       ! Type
  Construction,                           ! Line Item Type
  90.1-2001 Res B25 Ext Slab Unheated - 8in Slab with Carpet, ! Item Name
  ,                                       ! Object End Use Key
  ,                                       ! Quantity {dimensionless}
  45.52,                                  ! Material Cost {$}
  CostPerArea;                            ! Material Cost Units

OS:ComponentData,
  {30ccde80-bded-4182-b4fa-30970ff19c6a}, ! Handle
  Component Data 1,                       ! Name
  {a91986bf-9df7-461b-8b05-3af2488a5cb2}, ! UUID
  {c9637cbe-358c-45ab-a647-eca1783b65ae}, ! Version UUID
  1363981613,                             ! Creation Timestamp
  1363981613,                             ! Version Timestamp
  {1929f700-4ba8-462b-af84-aaa0e31566d0}, ! Name of Object 1
  {e1dc9953-b742-4e0f-bc76-8790bc1df47a}, ! Name of Object 2
  {9f345925-eec4-4744-8e21-fee5efeb5b1f}, ! Name of Object 3
  {940fca12-4b64-4752-bae1-c31d6dce3740}; ! Name of Object 4

