
OS:Version,
  {c6861a18-18a3-4e4c-9fd6-e53a4c8f9b98}, ! Handle
  0.9.3;                                  ! Version Identifier

OS:Construction,
  {d637b440-f7e8-46a9-8062-a54009161557}, ! Handle
  90.1 Windows Window Fixed 3421 Brk-Clr-Ins-V22-Ins-Clr, ! Name
  ,                                       ! Surface Rendering Name
  {814a6e9e-be4a-4601-84d6-e301978949d8}; ! Layer 1

OS:WindowMaterial:Glazing,
  {814a6e9e-be4a-4601-84d6-e301978949d8}, ! Handle
  Theoretical Glass [560],                ! Name
  SpectralAverage,                        ! Optical Data Type
  ,                                       ! Window Glass Spectral Data Set Name
  0.003,                                  ! Thickness {m}
  0.157338,                               ! Solar Transmittance at Normal Incidence
  0.792662,                               ! Front Side Solar Reflectance at Normal Incidence
  0.792662,                               ! Back Side Solar Reflectance at Normal Incidence
  0.171715,                               ! Visible Transmittance at Normal Incidence
  0.778285,                               ! Front Side Visible Reflectance at Normal Incidence
  0.778285,                               ! Back Side Visible Reflectance at Normal Incidence
  0,                                      ! Infrared Transmittance at Normal Incidence
  0.9,                                    ! Front Side Infrared Hemispherical Emissivity
  0.9,                                    ! Back Side Infrared Hemispherical Emissivity
  0.00810831;                             ! Conductivity {W/m-K}

OS:ComponentCost:LineItem,
  {280c8a1b-add4-4ce3-8eaa-806f8c9f2948}, ! Handle
  90.1 Windows Window Fixed 3421 Brk-Clr-Ins-V22-Ins-Clr, ! Name
  ,                                       ! Type
  Construction,                           ! Line Item Type
  90.1 Windows Window Fixed 3421 Brk-Clr-Ins-V22-Ins-Clr, ! Item Name
  ,                                       ! Object End Use Key
  ,                                       ! Quantity {dimensionless}
  0,                                      ! Material Cost {$}
  CostPerArea;                            ! Material Cost Units

OS:ComponentData,
  {b14eff5d-816b-487c-bd1f-47ba4d326b6d}, ! Handle
  Component Data 1,                       ! Name
  {1ee86b85-7970-447e-8a9c-7ffd123e4b00}, ! UUID
  {06452996-1cb8-4b16-a9d2-97859ae8bead}, ! Version UUID
  1363981030,                             ! Creation Timestamp
  1363981030,                             ! Version Timestamp
  {d637b440-f7e8-46a9-8062-a54009161557}, ! Name of Object 1
  {814a6e9e-be4a-4601-84d6-e301978949d8}, ! Name of Object 2
  {280c8a1b-add4-4ce3-8eaa-806f8c9f2948}; ! Name of Object 3

