
OS:Version,
  {0369838a-a4bb-42d8-aac2-efbd251284d5}, ! Handle
  0.9.3;                                  ! Version Identifier

OS:Construction,
  {ecccba8d-32ec-48dd-8a04-719e9b358b02}, ! Handle
  189.1-2009 Nonres 3A Int Wall,          ! Name
  ,                                       ! Surface Rendering Name
  {b0cff416-d605-4011-bdd4-492b190bbc6b}, ! Layer 1
  {b0cff416-d605-4011-bdd4-492b190bbc6b}; ! Layer 2

OS:Material,
  {b0cff416-d605-4011-bdd4-492b190bbc6b}, ! Handle
  GP01 1/2 GYPSUM,                        ! Name
  Smooth,                                 ! Roughness
  0.01271,                                ! Thickness {m}
  0.16,                                   ! Conductivity {W/m-K}
  800,                                    ! Density {kg/m3}
  1090,                                   ! Specific Heat {J/kg-K}
  0.9,                                    ! Thermal Absorptance
  0.7,                                    ! Solar Absorptance
  0.5;                                    ! Visible Absorptance

OS:ComponentCost:LineItem,
  {a7cc3cea-ebbe-4dea-9945-bd9e26ad33d7}, ! Handle
  189.1-2009 Nonres 3A Int Wall,          ! Name
  ,                                       ! Type
  Construction,                           ! Line Item Type
  189.1-2009 Nonres 3A Int Wall,          ! Item Name
  ,                                       ! Object End Use Key
  ,                                       ! Quantity {dimensionless}
  0,                                      ! Material Cost {$}
  CostPerArea;                            ! Material Cost Units

OS:Material,
  {1f33cc9b-883d-4523-88f0-ee1d7cf04364}, ! Handle
  GP01 1/2 GYPSUM 1,                      ! Name
  Smooth,                                 ! Roughness
  0.01271,                                ! Thickness {m}
  0.16,                                   ! Conductivity {W/m-K}
  800,                                    ! Density {kg/m3}
  1090,                                   ! Specific Heat {J/kg-K}
  0.9,                                    ! Thermal Absorptance
  0.7,                                    ! Solar Absorptance
  0.5;                                    ! Visible Absorptance

