
OS:Version,
  {a5515ee0-2ca4-4037-b95b-b56bf252f732}, ! Handle
  0.9.3;                                  ! Version Identifier

OS:Construction,
  {054c9a3e-69a9-421a-b406-0e0740145af3}, ! Handle
  90.1-2007 Res 6B Skylight without Curb, ! Name
  ,                                       ! Surface Rendering Name
  {99cd5773-8d7f-491a-81ea-2b7abb41c598}; ! Layer 1

OS:WindowMaterial:Glazing,
  {99cd5773-8d7f-491a-81ea-2b7abb41c598}, ! Handle
  Theoretical Glass [164],                ! Name
  SpectralAverage,                        ! Optical Data Type
  ,                                       ! Window Glass Spectral Data Set Name
  0.003,                                  ! Thickness {m}
  0.482092,                               ! Solar Transmittance at Normal Incidence
  0.467908,                               ! Front Side Solar Reflectance at Normal Incidence
  0.467908,                               ! Back Side Solar Reflectance at Normal Incidence
  0.621562,                               ! Visible Transmittance at Normal Incidence
  0.328438,                               ! Front Side Visible Reflectance at Normal Incidence
  0.328438,                               ! Back Side Visible Reflectance at Normal Incidence
  0,                                      ! Infrared Transmittance at Normal Incidence
  0.9,                                    ! Front Side Infrared Hemispherical Emissivity
  0.9,                                    ! Back Side Infrared Hemispherical Emissivity
  0.0205762;                              ! Conductivity {W/m-K}

OS:ComponentCost:LineItem,
  {e42afcbb-31b7-4db2-b23d-4917b3130e0c}, ! Handle
  90.1-2007 Res 6B Skylight without Curb, ! Name
  ,                                       ! Type
  Construction,                           ! Line Item Type
  90.1-2007 Res 6B Skylight without Curb, ! Item Name
  ,                                       ! Object End Use Key
  ,                                       ! Quantity {dimensionless}
  444.232,                                ! Material Cost {$}
  CostPerArea;                            ! Material Cost Units

OS:ComponentData,
  {8c845ad8-98dc-4ef9-882f-1e6fcaad5a93}, ! Handle
  Component Data 1,                       ! Name
  {77a97317-b383-469d-9144-5963756486b6}, ! UUID
  {0b1c0131-ab9e-4f51-8eab-9c8c80dd4067}, ! Version UUID
  1363981868,                             ! Creation Timestamp
  1363981868,                             ! Version Timestamp
  {054c9a3e-69a9-421a-b406-0e0740145af3}, ! Name of Object 1
  {99cd5773-8d7f-491a-81ea-2b7abb41c598}, ! Name of Object 2
  {e42afcbb-31b7-4db2-b23d-4917b3130e0c}; ! Name of Object 3

