
! 
OS:Version,
  {9c37d538-db0d-4a47-9850-5bede7e76bd5}, !- Handle
  1.13.0;                                 !- Version Identifier


! {"nombreProductoCorto": "CLIMALIT PLUS con PLANITHERM XN F3 6(16 argon90%)4", "codigoEAN": "", "handle": "b9ca8674-1cd7-4559-9502-3af98fbbb133", "g": 0.64, "tV": 0.81, "u": 1.1, "nombreProducto": "CLIMALIT PLUS con PLANITHERM XN F3 6(16 argon90%)4\nU:1.1 W/m2K - g:0.64 - Tv: 0.81"}
OS:WindowMaterial:SimpleGlazingSystem,
  {b9ca8674-1cd7-4559-9502-3af98fbbb133}, !- Handle
  CLIMALIT PLUS con PLANITHERM XN F3 6(16 argon90%)4, !- Name
  1.1,                                    !- U-Factor {W/m2-K}
  0.64,                                    !- Solar Heat Gain Coefficient
  0.81;                                    !- Visible Transmittance     
  
  
OS:Construction,
  {cf1bea82-38e8-4487-b7a4-dbc44c22ec13}, !- Handle
  CLIMALIT PLUS con PLANITHERM XN F3 6(16 argon90%)4,                         !- Name
  ,                                       !- Surface Rendering Name
  {b9ca8674-1cd7-4559-9502-3af98fbbb133}; !- Layer 1  

