
OS:Version,
  {3ef6c9de-c8a8-47b3-b958-61dcc08aaf27}, ! Handle
  0.9.3;                                  ! Version Identifier

OS:Construction,
  {084428ec-afb9-444e-b33d-6fe9cb054f93}, ! Handle
  90.1-1999 Res B6 Skylight without Curb, ! Name
  ,                                       ! Surface Rendering Name
  {c2ca2cc8-3c3f-4302-83e1-9914cb264955}; ! Layer 1

OS:WindowMaterial:Glazing,
  {c2ca2cc8-3c3f-4302-83e1-9914cb264955}, ! Handle
  Theoretical Glass [68],                 ! Name
  SpectralAverage,                        ! Optical Data Type
  ,                                       ! Window Glass Spectral Data Set Name
  0.003,                                  ! Thickness {m}
  0.346211,                               ! Solar Transmittance at Normal Incidence
  0.603789,                               ! Front Side Solar Reflectance at Normal Incidence
  0.603789,                               ! Back Side Solar Reflectance at Normal Incidence
  0.360158,                               ! Visible Transmittance at Normal Incidence
  0.589842,                               ! Front Side Visible Reflectance at Normal Incidence
  0.589842,                               ! Back Side Visible Reflectance at Normal Incidence
  0,                                      ! Infrared Transmittance at Normal Incidence
  0.999,                                  ! Front Side Infrared Hemispherical Emissivity
  0.999,                                  ! Back Side Infrared Hemispherical Emissivity
  72.7123;                                ! Conductivity {W/m-K}

OS:ComponentCost:LineItem,
  {c73c5bfc-64aa-4877-b01c-4cae552c7696}, ! Handle
  90.1-1999 Res B6 Skylight without Curb, ! Name
  ,                                       ! Type
  Construction,                           ! Line Item Type
  90.1-1999 Res B6 Skylight without Curb, ! Item Name
  ,                                       ! Object End Use Key
  ,                                       ! Quantity {dimensionless}
  527.515,                                ! Material Cost {$}
  CostPerArea;                            ! Material Cost Units

OS:ComponentData,
  {abcb7b21-f6bd-420c-baa6-882a2d8527fb}, ! Handle
  Component Data 1,                       ! Name
  {b896ed80-c419-46ef-86fa-a1cb5d07c106}, ! UUID
  {bb64a1a6-cb9c-43fd-b5f9-850ac22a4bf8}, ! Version UUID
  1363981190,                             ! Creation Timestamp
  1363981190,                             ! Version Timestamp
  {084428ec-afb9-444e-b33d-6fe9cb054f93}, ! Name of Object 1
  {c2ca2cc8-3c3f-4302-83e1-9914cb264955}, ! Name of Object 2
  {c73c5bfc-64aa-4877-b01c-4cae552c7696}; ! Name of Object 3

