
OS:Version,
  {a9d988c5-51bd-4133-abd8-b7fef9481a71}, ! Handle
  0.9.3;                                  ! Version Identifier

OS:WindowMaterial:Glazing,
  {4df1eeb8-c1b6-4d40-b5b8-36afd5b54870}, ! Handle
  Theoretical Glass [681],                ! Name
  SpectralAverage,                        ! Optical Data Type
  ,                                       ! Window Glass Spectral Data Set Name
  0.003,                                  ! Thickness {m}
  0.390498,                               ! Solar Transmittance at Normal Incidence
  0.559502,                               ! Front Side Solar Reflectance at Normal Incidence
  0.559502,                               ! Back Side Solar Reflectance at Normal Incidence
  0.400004,                               ! Visible Transmittance at Normal Incidence
  0.549996,                               ! Front Side Visible Reflectance at Normal Incidence
  0.549996,                               ! Back Side Visible Reflectance at Normal Incidence
  0,                                      ! Infrared Transmittance at Normal Incidence
  0.9,                                    ! Front Side Infrared Hemispherical Emissivity
  0.9,                                    ! Back Side Infrared Hemispherical Emissivity
  0.0498596;                              ! Conductivity {W/m-K}

OS:Construction,
  {e2284366-a9c5-49d5-b0be-e7ec49b50483}, ! Handle
  Title 24-2008 Nonres 8 Skylight without Curb, ! Name
  ,                                       ! Surface Rendering Name
  {4df1eeb8-c1b6-4d40-b5b8-36afd5b54870}; ! Layer 1

OS:ComponentCost:LineItem,
  {942ab84f-39e6-4eb3-883b-1869f9630d57}, ! Handle
  Title 24-2008 Nonres 8 Skylight without Curb, ! Name
  ,                                       ! Type
  Construction,                           ! Line Item Type
  Title 24-2008 Nonres 8 Skylight without Curb, ! Item Name
  ,                                       ! Object End Use Key
  ,                                       ! Quantity {dimensionless}
  511.59,                                 ! Material Cost {$}
  CostPerArea;                            ! Material Cost Units

