
OS:Version,
  {7ca4fdad-826d-408e-af33-579e369c2f13}, ! Handle
  0.9.3;                                  ! Version Identifier

OS:Material,
  {f9f4da3f-7c5d-499a-a3f2-f256a2b272ef}, ! Handle
  1/2IN Gypsum,                           ! Name
  Smooth,                                 ! Roughness
  0.01271,                                ! Thickness {m}
  0.16,                                   ! Conductivity {W/m-K}
  784.9,                                  ! Density {kg/m3}
  830,                                    ! Specific Heat {J/kg-K}
  0.9,                                    ! Thermal Absorptance
  0.92,                                   ! Solar Absorptance
  0.92;                                   ! Visible Absorptance

OS:Material,
  {7ca29016-3bde-4310-818a-0ef7499dd1ea}, ! Handle
  Wood Shingles,                          ! Name
  VeryRough,                              ! Roughness
  0.0178,                                 ! Thickness {m}
  0.115,                                  ! Conductivity {W/m-K}
  513,                                    ! Density {kg/m3}
  1255,                                   ! Specific Heat {J/kg-K}
  0.9,                                    ! Thermal Absorptance
  0.78,                                   ! Solar Absorptance
  0.78;                                   ! Visible Absorptance

OS:Construction,
  {c6b81d1b-9948-4079-b41e-67a04fa9bec2}, ! Handle
  90.1 Constructions Roof Attic and Other R-115.0, ! Name
  ,                                       ! Surface Rendering Name
  {7ca29016-3bde-4310-818a-0ef7499dd1ea}, ! Layer 1
  {7f7c36f0-6ffc-48d6-8244-1d707dceeec5}, ! Layer 2
  {50357fc9-66f1-4a4b-af48-b48da9da125e}, ! Layer 3
  {f9f4da3f-7c5d-499a-a3f2-f256a2b272ef}; ! Layer 4

OS:Material,
  {7f7c36f0-6ffc-48d6-8244-1d707dceeec5}, ! Handle
  1IN Wood Decking,                       ! Name
  MediumSmooth,                           ! Roughness
  0.0254,                                 ! Thickness {m}
  0.1211,                                 ! Conductivity {W/m-K}
  593,                                    ! Density {kg/m3}
  2510,                                   ! Specific Heat {J/kg-K}
  0.9,                                    ! Thermal Absorptance
  0.78,                                   ! Solar Absorptance
  0.78;                                   ! Visible Absorptance

OS:Material,
  {50357fc9-66f1-4a4b-af48-b48da9da125e}, ! Handle
  Roof Insulation [90],                   ! Name
  MediumRough,                            ! Roughness
  0.924981,                               ! Thickness {m}
  0.049,                                  ! Conductivity {W/m-K}
  265,                                    ! Density {kg/m3}
  836.8,                                  ! Specific Heat {J/kg-K}
  0.9,                                    ! Thermal Absorptance
  0.7,                                    ! Solar Absorptance
  0.7;                                    ! Visible Absorptance

OS:ComponentCost:LineItem,
  {7d8261a7-accb-457d-bf1b-1727039ce509}, ! Handle
  90.1 Constructions Roof Attic and Other R-115.0, ! Name
  ,                                       ! Type
  Construction,                           ! Line Item Type
  90.1 Constructions Roof Attic and Other R-115.0, ! Item Name
  ,                                       ! Object End Use Key
  ,                                       ! Quantity {dimensionless}
  47.131,                                 ! Material Cost {$}
  CostPerArea;                            ! Material Cost Units

