
OS:Version,
  {d97aaaa4-a1d6-481f-9c79-f36c252c40f5}, ! Handle
  0.9.3;                                  ! Version Identifier

OS:WindowMaterial:Glazing,
  {cc85551a-a9c6-43f6-940d-5431473489cc}, ! Handle
  Theoretical Glass [414],                ! Name
  SpectralAverage,                        ! Optical Data Type
  ,                                       ! Window Glass Spectral Data Set Name
  0.003,                                  ! Thickness {m}
  0.346526,                               ! Solar Transmittance at Normal Incidence
  0.603474,                               ! Front Side Solar Reflectance at Normal Incidence
  0.603474,                               ! Back Side Solar Reflectance at Normal Incidence
  0.529698,                               ! Visible Transmittance at Normal Incidence
  0.420302,                               ! Front Side Visible Reflectance at Normal Incidence
  0.420302,                               ! Back Side Visible Reflectance at Normal Incidence
  0,                                      ! Infrared Transmittance at Normal Incidence
  0.9,                                    ! Front Side Infrared Hemispherical Emissivity
  0.9,                                    ! Back Side Infrared Hemispherical Emissivity
  0.00811056;                             ! Conductivity {W/m-K}

OS:Construction,
  {c9b7c548-7395-4c2f-bb06-7ae4da4e06ca}, ! Handle
  90.1 Windows Window Fixed 2632 Vnl-Grn-Ins-ClrSpe, ! Name
  ,                                       ! Surface Rendering Name
  {cc85551a-a9c6-43f6-940d-5431473489cc}; ! Layer 1

OS:ComponentCost:LineItem,
  {58602ce4-4711-4ee5-8802-b32c9eceaad6}, ! Handle
  90.1 Windows Window Fixed 2632 Vnl-Grn-Ins-ClrSpe, ! Name
  ,                                       ! Type
  Construction,                           ! Line Item Type
  90.1 Windows Window Fixed 2632 Vnl-Grn-Ins-ClrSpe, ! Item Name
  ,                                       ! Object End Use Key
  ,                                       ! Quantity {dimensionless}
  0,                                      ! Material Cost {$}
  CostPerArea;                            ! Material Cost Units

