
OS:Version,
  {a553f588-a602-49c3-913c-c41c23fa8a56}, ! Handle
  0.9.3;                                  ! Version Identifier

OS:Construction,
  {75351fd9-2b51-402c-b264-f9fc410fe4b4}, ! Handle
  189.1-2009 Nonres 3A Ext Slab Unheated - 8in Slab without Carpet, ! Name
  ,                                       ! Surface Rendering Name
  {ab8e5139-a18b-47ca-9a73-ac57d0c8e725}; ! Layer 1

OS:Material,
  {ab8e5139-a18b-47ca-9a73-ac57d0c8e725}, ! Handle
  MAT-CC05 8 HW CONCRETE,                 ! Name
  Rough,                                  ! Roughness
  0.20321,                                ! Thickness {m}
  1.311,                                  ! Conductivity {W/m-K}
  2240,                                   ! Density {kg/m3}
  836.8,                                  ! Specific Heat {J/kg-K}
  0.9,                                    ! Thermal Absorptance
  0.7,                                    ! Solar Absorptance
  0.7;                                    ! Visible Absorptance

OS:ComponentCost:LineItem,
  {c9723e67-7684-44a2-be2f-fd0cded6f5c2}, ! Handle
  189.1-2009 Nonres 3A Ext Slab Unheated - 8in Slab without Carpet, ! Name
  ,                                       ! Type
  Construction,                           ! Line Item Type
  189.1-2009 Nonres 3A Ext Slab Unheated - 8in Slab without Carpet, ! Item Name
  ,                                       ! Object End Use Key
  ,                                       ! Quantity {dimensionless}
  45.52,                                  ! Material Cost {$}
  CostPerArea;                            ! Material Cost Units

OS:ComponentData,
  {a3dd96fc-1483-4e2d-a171-f3767724e92b}, ! Handle
  Component Data 1,                       ! Name
  {3dd1c843-10dd-4c3e-af29-f1511f282025}, ! UUID
  {4019a914-0201-4b92-b5e7-9f80e8208178}, ! Version UUID
  1363980936,                             ! Creation Timestamp
  1363980936,                             ! Version Timestamp
  {75351fd9-2b51-402c-b264-f9fc410fe4b4}, ! Name of Object 1
  {ab8e5139-a18b-47ca-9a73-ac57d0c8e725}, ! Name of Object 2
  {c9723e67-7684-44a2-be2f-fd0cded6f5c2}; ! Name of Object 3

