
OS:Version,
  {3de3e160-1e43-4d80-a78f-162acbb47f2f}, ! Handle
  0.9.3;                                  ! Version Identifier

OS:Construction,
  {8227ee4f-2986-46c9-8086-b1a77bc7b484}, ! Handle
  189.1-2009 Nonres 3A Ext Slab Unheated - 8in Slab without Carpet, ! Name
  ,                                       ! Surface Rendering Name
  {900bf145-d285-437f-88be-c1682a414c23}; ! Layer 1

OS:Material,
  {900bf145-d285-437f-88be-c1682a414c23}, ! Handle
  MAT-CC05 8 HW CONCRETE,                 ! Name
  Rough,                                  ! Roughness
  0.20321,                                ! Thickness {m}
  1.311,                                  ! Conductivity {W/m-K}
  2240,                                   ! Density {kg/m3}
  836.8,                                  ! Specific Heat {J/kg-K}
  0.9,                                    ! Thermal Absorptance
  0.7,                                    ! Solar Absorptance
  0.7;                                    ! Visible Absorptance

OS:ComponentCost:LineItem,
  {9b0c1bd0-1a0d-4cb0-af1f-0bae259677d7}, ! Handle
  189.1-2009 Nonres 3A Ext Slab Unheated - 8in Slab without Carpet, ! Name
  ,                                       ! Type
  Construction,                           ! Line Item Type
  189.1-2009 Nonres 3A Ext Slab Unheated - 8in Slab without Carpet, ! Item Name
  ,                                       ! Object End Use Key
  ,                                       ! Quantity {dimensionless}
  45.52,                                  ! Material Cost {$}
  CostPerArea;                            ! Material Cost Units

