
OS:Version,
  {a3a03d4f-42d1-4682-9361-efabe766d060}, ! Handle
  0.9.3;                                  ! Version Identifier

OS:Construction,
  {4bdeeda2-7c02-4f38-b238-4ce532448cce}, ! Handle
  90.1-1999 Res B4 Ext Wall Steel-Framed, ! Name
  ,                                       ! Surface Rendering Name
  {2a3f604d-1d5f-40b1-a8ab-118c0504bbd7}, ! Layer 1
  {1655f580-636f-41f5-af82-da1d6e2e1c4a}, ! Layer 2
  {551cae3f-5ef3-4e62-992f-2d40d6b02ba9}; ! Layer 3

OS:Material:NoMass,
  {2a3f604d-1d5f-40b1-a8ab-118c0504bbd7}, ! Handle
  MAT-SHEATH,                             ! Name
  Rough,                                  ! Roughness
  0.36256,                                ! Thermal Resistance {m2-K/W}
  0.9,                                    ! Thermal Absorptance
  0.7,                                    ! Solar Absorptance
  0.7;                                    ! Visible Absorptance

OS:Material,
  {1655f580-636f-41f5-af82-da1d6e2e1c4a}, ! Handle
  Wall Insulation [1],                    ! Name
  MediumRough,                            ! Roughness
  0.0373223,                              ! Thickness {m}
  0.045,                                  ! Conductivity {W/m-K}
  265,                                    ! Density {kg/m3}
  836.8,                                  ! Specific Heat {J/kg-K}
  0.9,                                    ! Thermal Absorptance
  0.7,                                    ! Solar Absorptance
  0.7;                                    ! Visible Absorptance

OS:Material,
  {551cae3f-5ef3-4e62-992f-2d40d6b02ba9}, ! Handle
  1/2IN Gypsum,                           ! Name
  Smooth,                                 ! Roughness
  0.01271,                                ! Thickness {m}
  0.16,                                   ! Conductivity {W/m-K}
  784.9,                                  ! Density {kg/m3}
  830,                                    ! Specific Heat {J/kg-K}
  0.9,                                    ! Thermal Absorptance
  0.92,                                   ! Solar Absorptance
  0.92;                                   ! Visible Absorptance

OS:ComponentCost:LineItem,
  {ea827b5a-aa7e-4667-8ce2-46dd95861153}, ! Handle
  90.1-1999 Res B4 Ext Wall Steel-Framed, ! Name
  ,                                       ! Type
  Construction,                           ! Line Item Type
  90.1-1999 Res B4 Ext Wall Steel-Framed, ! Item Name
  ,                                       ! Object End Use Key
  ,                                       ! Quantity {dimensionless}
  87.08,                                  ! Material Cost {$}
  CostPerArea;                            ! Material Cost Units

