
OS:Version,
  {d2f5c38e-a0a9-446d-883b-2b191d4a4171}, ! Handle
  0.9.3;                                  ! Version Identifier

OS:Material,
  {a2b5d2db-c110-4da4-8503-4f84d9660913}, ! Handle
  Roof Insulation [12],                   ! Name
  MediumRough,                            ! Roughness
  0.167635,                               ! Thickness {m}
  0.049,                                  ! Conductivity {W/m-K}
  265,                                    ! Density {kg/m3}
  836.8,                                  ! Specific Heat {J/kg-K}
  0.9,                                    ! Thermal Absorptance
  0.7,                                    ! Solar Absorptance
  0.7;                                    ! Visible Absorptance

OS:Material,
  {f55ef0c8-271f-4ed3-a2ab-b67bce53a7c7}, ! Handle
  Roof Membrane,                          ! Name
  VeryRough,                              ! Roughness
  0.0095,                                 ! Thickness {m}
  0.16,                                   ! Conductivity {W/m-K}
  1121.29,                                ! Density {kg/m3}
  1460,                                   ! Specific Heat {J/kg-K}
  0.9,                                    ! Thermal Absorptance
  0.7,                                    ! Solar Absorptance
  0.7;                                    ! Visible Absorptance

OS:Construction,
  {5ba74a2a-62c7-40da-908d-e80b9acafc29}, ! Handle
  90.1-2001 Res B21 Roof IEAD,            ! Name
  ,                                       ! Surface Rendering Name
  {f55ef0c8-271f-4ed3-a2ab-b67bce53a7c7}, ! Layer 1
  {a2b5d2db-c110-4da4-8503-4f84d9660913}, ! Layer 2
  {f000596f-4913-4cff-919c-f7d73881f68c}; ! Layer 3

OS:Material,
  {f000596f-4913-4cff-919c-f7d73881f68c}, ! Handle
  Metal Decking,                          ! Name
  MediumSmooth,                           ! Roughness
  0.001524,                               ! Thickness {m}
  45.006,                                 ! Conductivity {W/m-K}
  7680,                                   ! Density {kg/m3}
  418.4,                                  ! Specific Heat {J/kg-K}
  0.9,                                    ! Thermal Absorptance
  0.7,                                    ! Solar Absorptance
  0.3;                                    ! Visible Absorptance

OS:ComponentCost:LineItem,
  {380d20f5-533e-478a-b84e-d6a5df9a0f80}, ! Handle
  90.1-2001 Res B21 Roof IEAD,            ! Name
  ,                                       ! Type
  Construction,                           ! Line Item Type
  90.1-2001 Res B21 Roof IEAD,            ! Item Name
  ,                                       ! Object End Use Key
  ,                                       ! Quantity {dimensionless}
  52.902,                                 ! Material Cost {$}
  CostPerArea;                            ! Material Cost Units

