
OS:Version,
  {2f318103-e36b-45f4-8891-6d23327810e1}, ! Handle
  0.9.3;                                  ! Version Identifier

OS:Construction,
  {841bbcb8-8e5c-416b-91a1-776b541d9b3e}, ! Handle
  90.1-2001 Res B21 Roof IEAD,            ! Name
  ,                                       ! Surface Rendering Name
  {343c3bca-8502-448c-b545-084250b9bae3}, ! Layer 1
  {431df131-080c-4e4a-a49b-7f2ec37b0467}, ! Layer 2
  {d15f8063-4ef4-4327-9736-cf31a99fbc61}; ! Layer 3

OS:Material,
  {343c3bca-8502-448c-b545-084250b9bae3}, ! Handle
  Roof Membrane,                          ! Name
  VeryRough,                              ! Roughness
  0.0095,                                 ! Thickness {m}
  0.16,                                   ! Conductivity {W/m-K}
  1121.29,                                ! Density {kg/m3}
  1460,                                   ! Specific Heat {J/kg-K}
  0.9,                                    ! Thermal Absorptance
  0.7,                                    ! Solar Absorptance
  0.7;                                    ! Visible Absorptance

OS:Material,
  {431df131-080c-4e4a-a49b-7f2ec37b0467}, ! Handle
  Roof Insulation [12],                   ! Name
  MediumRough,                            ! Roughness
  0.167635,                               ! Thickness {m}
  0.049,                                  ! Conductivity {W/m-K}
  265,                                    ! Density {kg/m3}
  836.8,                                  ! Specific Heat {J/kg-K}
  0.9,                                    ! Thermal Absorptance
  0.7,                                    ! Solar Absorptance
  0.7;                                    ! Visible Absorptance

OS:Material,
  {d15f8063-4ef4-4327-9736-cf31a99fbc61}, ! Handle
  Metal Decking,                          ! Name
  MediumSmooth,                           ! Roughness
  0.001524,                               ! Thickness {m}
  45.006,                                 ! Conductivity {W/m-K}
  7680,                                   ! Density {kg/m3}
  418.4,                                  ! Specific Heat {J/kg-K}
  0.9,                                    ! Thermal Absorptance
  0.7,                                    ! Solar Absorptance
  0.3;                                    ! Visible Absorptance

OS:ComponentCost:LineItem,
  {163357ce-d5e0-4992-8baf-7e941251d05c}, ! Handle
  90.1-2001 Res B21 Roof IEAD,            ! Name
  ,                                       ! Type
  Construction,                           ! Line Item Type
  90.1-2001 Res B21 Roof IEAD,            ! Item Name
  ,                                       ! Object End Use Key
  ,                                       ! Quantity {dimensionless}
  52.902,                                 ! Material Cost {$}
  CostPerArea;                            ! Material Cost Units

OS:ComponentData,
  {1b8b7b4b-a125-4b1a-ba11-5fb80fca9ff5}, ! Handle
  Component Data 1,                       ! Name
  {cd648f1b-8814-4b22-9c86-645cf496b688}, ! UUID
  {43d6ad17-6a1f-4471-a61d-41c5a8a23766}, ! Version UUID
  1363981580,                             ! Creation Timestamp
  1363981580,                             ! Version Timestamp
  {841bbcb8-8e5c-416b-91a1-776b541d9b3e}, ! Name of Object 1
  {343c3bca-8502-448c-b545-084250b9bae3}, ! Name of Object 2
  {431df131-080c-4e4a-a49b-7f2ec37b0467}, ! Name of Object 3
  {d15f8063-4ef4-4327-9736-cf31a99fbc61}, ! Name of Object 4
  {163357ce-d5e0-4992-8baf-7e941251d05c}; ! Name of Object 5

