
OS:Version,
  {12b8fb49-19bf-4dad-9638-0097ab7ba83b}, ! Handle
  0.9.3;                                  ! Version Identifier

OS:Material,
  {05944739-2eef-4eda-9f10-0fd31c79bdf9}, ! Handle
  MAT-CC05 8 HW CONCRETE,                 ! Name
  Rough,                                  ! Roughness
  0.20321,                                ! Thickness {m}
  1.311,                                  ! Conductivity {W/m-K}
  2240,                                   ! Density {kg/m3}
  836.8,                                  ! Specific Heat {J/kg-K}
  0.9,                                    ! Thermal Absorptance
  0.7,                                    ! Solar Absorptance
  0.7;                                    ! Visible Absorptance

OS:Construction,
  {37ca3c02-5422-407e-b9c6-a9e9d89888c1}, ! Handle
  90.1-1999 Nonres B6 Ext Slab Unheated - 8in Slab without Carpet, ! Name
  ,                                       ! Surface Rendering Name
  {05944739-2eef-4eda-9f10-0fd31c79bdf9}; ! Layer 1

OS:ComponentCost:LineItem,
  {eb460eb4-160f-426c-adea-456b493d5320}, ! Handle
  90.1-1999 Nonres B6 Ext Slab Unheated - 8in Slab without Carpet, ! Name
  ,                                       ! Type
  Construction,                           ! Line Item Type
  90.1-1999 Nonres B6 Ext Slab Unheated - 8in Slab without Carpet, ! Item Name
  ,                                       ! Object End Use Key
  ,                                       ! Quantity {dimensionless}
  45.52,                                  ! Material Cost {$}
  CostPerArea;                            ! Material Cost Units

