
OS:Version,
  {022e6b6c-3c68-4180-ab1c-4ccb2f8aeff7}, ! Handle
  0.9.3;                                  ! Version Identifier

OS:Construction,
  {ec9a38a9-ba42-41fa-97a3-4db82e4fe20d}, ! Handle
  90.1-1999 Nonres B5 Int Wall,           ! Name
  ,                                       ! Surface Rendering Name
  {07a42a0b-ac82-409e-8942-f30e419a13a2}, ! Layer 1
  {07a42a0b-ac82-409e-8942-f30e419a13a2}; ! Layer 2

OS:Material,
  {07a42a0b-ac82-409e-8942-f30e419a13a2}, ! Handle
  GP01 1/2 GYPSUM,                        ! Name
  Smooth,                                 ! Roughness
  0.01271,                                ! Thickness {m}
  0.16,                                   ! Conductivity {W/m-K}
  800,                                    ! Density {kg/m3}
  1090,                                   ! Specific Heat {J/kg-K}
  0.9,                                    ! Thermal Absorptance
  0.7,                                    ! Solar Absorptance
  0.5;                                    ! Visible Absorptance

OS:ComponentCost:LineItem,
  {40267538-5147-4904-8585-9478fdc48a01}, ! Handle
  90.1-1999 Nonres B5 Int Wall,           ! Name
  ,                                       ! Type
  Construction,                           ! Line Item Type
  90.1-1999 Nonres B5 Int Wall,           ! Item Name
  ,                                       ! Object End Use Key
  ,                                       ! Quantity {dimensionless}
  0,                                      ! Material Cost {$}
  CostPerArea;                            ! Material Cost Units

OS:ComponentData,
  {e388da8b-bfcc-40d2-9d34-4634bc3c1c70}, ! Handle
  Component Data 1,                       ! Name
  {3b9fbd42-eae8-46bc-b742-c4a886958b6e}, ! UUID
  {4b917a65-57aa-4e53-899e-b8d55105c98a}, ! Version UUID
  1363981056,                             ! Creation Timestamp
  1363981056,                             ! Version Timestamp
  {ec9a38a9-ba42-41fa-97a3-4db82e4fe20d}, ! Name of Object 1
  {07a42a0b-ac82-409e-8942-f30e419a13a2}, ! Name of Object 2
  {40267538-5147-4904-8585-9478fdc48a01}; ! Name of Object 3

