
OS:Version,
  {4fe1b29b-e8fe-4818-b4f2-73e1a8b0b817}, ! Handle
  0.9.3;                                  ! Version Identifier

OS:Material,
  {bb45e6be-a09d-41ab-9738-f53f6d000577}, ! Handle
  GP01 1/2 GYPSUM 1,                      ! Name
  Smooth,                                 ! Roughness
  0.01271,                                ! Thickness {m}
  0.16,                                   ! Conductivity {W/m-K}
  800,                                    ! Density {kg/m3}
  1090,                                   ! Specific Heat {J/kg-K}
  0.9,                                    ! Thermal Absorptance
  0.7,                                    ! Solar Absorptance
  0.5;                                    ! Visible Absorptance

OS:ComponentCost:LineItem,
  {369ba3f1-ffaf-4c59-8d8f-1f786dd54859}, ! Handle
  90.1-1999 Nonres B5 Int Wall,           ! Name
  ,                                       ! Type
  Construction,                           ! Line Item Type
  90.1-1999 Nonres B5 Int Wall,           ! Item Name
  ,                                       ! Object End Use Key
  ,                                       ! Quantity {dimensionless}
  0,                                      ! Material Cost {$}
  CostPerArea;                            ! Material Cost Units

OS:Material,
  {3bdbc833-2d67-47c2-aeee-13842d9d584d}, ! Handle
  GP01 1/2 GYPSUM,                        ! Name
  Smooth,                                 ! Roughness
  0.01271,                                ! Thickness {m}
  0.16,                                   ! Conductivity {W/m-K}
  800,                                    ! Density {kg/m3}
  1090,                                   ! Specific Heat {J/kg-K}
  0.9,                                    ! Thermal Absorptance
  0.7,                                    ! Solar Absorptance
  0.5;                                    ! Visible Absorptance

OS:Construction,
  {f2d33cf0-0620-460d-8d68-b911007f5937}, ! Handle
  90.1-1999 Nonres B5 Int Wall,           ! Name
  ,                                       ! Surface Rendering Name
  {3bdbc833-2d67-47c2-aeee-13842d9d584d}, ! Layer 1
  {3bdbc833-2d67-47c2-aeee-13842d9d584d}; ! Layer 2

