
OS:Version,
  {19922190-5864-4ed6-a4f3-c688c003db3f}, ! Handle
  0.9.3;                                  ! Version Identifier

OS:ComponentCost:LineItem,
  {bc1c372a-8e7c-4989-b814-d8ad7599c0c4}, ! Handle
  90.1-2001 Nonres B16 Int Wall,          ! Name
  ,                                       ! Type
  Construction,                           ! Line Item Type
  90.1-2001 Nonres B16 Int Wall,          ! Item Name
  ,                                       ! Object End Use Key
  ,                                       ! Quantity {dimensionless}
  0,                                      ! Material Cost {$}
  CostPerArea;                            ! Material Cost Units

OS:Construction,
  {21fa6185-9858-4bb0-aa1c-db1f4fa8469e}, ! Handle
  90.1-2001 Nonres B16 Int Wall,          ! Name
  ,                                       ! Surface Rendering Name
  {b41a605b-d453-4a4d-813e-516c92b9e6e9}, ! Layer 1
  {b41a605b-d453-4a4d-813e-516c92b9e6e9}; ! Layer 2

OS:Material,
  {b41a605b-d453-4a4d-813e-516c92b9e6e9}, ! Handle
  GP01 1/2 GYPSUM,                        ! Name
  Smooth,                                 ! Roughness
  0.01271,                                ! Thickness {m}
  0.16,                                   ! Conductivity {W/m-K}
  800,                                    ! Density {kg/m3}
  1090,                                   ! Specific Heat {J/kg-K}
  0.9,                                    ! Thermal Absorptance
  0.7,                                    ! Solar Absorptance
  0.5;                                    ! Visible Absorptance

OS:Material,
  {1ba19f2d-6870-4b41-b6e5-264a9cb0284b}, ! Handle
  GP01 1/2 GYPSUM 1,                      ! Name
  Smooth,                                 ! Roughness
  0.01271,                                ! Thickness {m}
  0.16,                                   ! Conductivity {W/m-K}
  800,                                    ! Density {kg/m3}
  1090,                                   ! Specific Heat {J/kg-K}
  0.9,                                    ! Thermal Absorptance
  0.7,                                    ! Solar Absorptance
  0.5;                                    ! Visible Absorptance

