
OS:Version,
  {358a88a4-c3c3-45f9-b276-e754d1e303a7}, ! Handle
  0.9.3;                                  ! Version Identifier

OS:Construction,
  {5584cc95-87dc-45ab-b91f-ecd72b819c12}, ! Handle
  90.1-2004 Res 6B Roof Metal Building,   ! Name
  ,                                       ! Surface Rendering Name
  {ca5ebc49-e7f4-4118-908d-0d6a12fa0944}, ! Layer 1
  {ca317e90-2ad9-41a3-a669-1efbd1c1a27e}; ! Layer 2

OS:Material,
  {ca5ebc49-e7f4-4118-908d-0d6a12fa0944}, ! Handle
  Metal Roofing,                          ! Name
  MediumSmooth,                           ! Roughness
  0.001524,                               ! Thickness {m}
  45.006,                                 ! Conductivity {W/m-K}
  7680,                                   ! Density {kg/m3}
  418.4,                                  ! Specific Heat {J/kg-K}
  0.9,                                    ! Thermal Absorptance
  0.7,                                    ! Solar Absorptance
  0.3;                                    ! Visible Absorptance

OS:Material,
  {ca317e90-2ad9-41a3-a669-1efbd1c1a27e}, ! Handle
  Roof Insulation [1],                    ! Name
  MediumRough,                            ! Roughness
  0.123533,                               ! Thickness {m}
  0.049,                                  ! Conductivity {W/m-K}
  265,                                    ! Density {kg/m3}
  836.8,                                  ! Specific Heat {J/kg-K}
  0.9,                                    ! Thermal Absorptance
  0.7,                                    ! Solar Absorptance
  0.7;                                    ! Visible Absorptance

OS:ComponentCost:LineItem,
  {8700237f-f788-42d3-a050-e544ee0aa09c}, ! Handle
  90.1-2004 Res 6B Roof Metal Building,   ! Name
  ,                                       ! Type
  Construction,                           ! Line Item Type
  90.1-2004 Res 6B Roof Metal Building,   ! Item Name
  ,                                       ! Object End Use Key
  ,                                       ! Quantity {dimensionless}
  38.206,                                 ! Material Cost {$}
  CostPerArea;                            ! Material Cost Units

