
OS:Version,
  {daccd7fc-60f2-49e9-89ab-de59efe45ae9}, ! Handle
  0.9.3;                                  ! Version Identifier

OS:Construction,
  {aaa4d495-8851-46a7-b8c5-b472c8c49d22}, ! Handle
  90.1-2004 Res 6B Roof Metal Building,   ! Name
  ,                                       ! Surface Rendering Name
  {a4cfe00d-5615-4c2e-9443-defb660cc285}, ! Layer 1
  {8fe5cef9-bb7f-4a36-819e-45740334111c}; ! Layer 2

OS:Material,
  {a4cfe00d-5615-4c2e-9443-defb660cc285}, ! Handle
  Metal Roofing,                          ! Name
  MediumSmooth,                           ! Roughness
  0.001524,                               ! Thickness {m}
  45.006,                                 ! Conductivity {W/m-K}
  7680,                                   ! Density {kg/m3}
  418.4,                                  ! Specific Heat {J/kg-K}
  0.9,                                    ! Thermal Absorptance
  0.7,                                    ! Solar Absorptance
  0.3;                                    ! Visible Absorptance

OS:Material,
  {8fe5cef9-bb7f-4a36-819e-45740334111c}, ! Handle
  Roof Insulation [1],                    ! Name
  MediumRough,                            ! Roughness
  0.123533,                               ! Thickness {m}
  0.049,                                  ! Conductivity {W/m-K}
  265,                                    ! Density {kg/m3}
  836.8,                                  ! Specific Heat {J/kg-K}
  0.9,                                    ! Thermal Absorptance
  0.7,                                    ! Solar Absorptance
  0.7;                                    ! Visible Absorptance

OS:ComponentCost:LineItem,
  {d38b9b55-53cc-4226-b3d5-ae830fb629ca}, ! Handle
  90.1-2004 Res 6B Roof Metal Building,   ! Name
  ,                                       ! Type
  Construction,                           ! Line Item Type
  90.1-2004 Res 6B Roof Metal Building,   ! Item Name
  ,                                       ! Object End Use Key
  ,                                       ! Quantity {dimensionless}
  38.206,                                 ! Material Cost {$}
  CostPerArea;                            ! Material Cost Units

OS:ComponentData,
  {df79bb72-63ab-4d58-be32-05d0d252faa5}, ! Handle
  Component Data 1,                       ! Name
  {4226693a-97dc-4347-84dc-6e9395d7bc3e}, ! UUID
  {1fe0f3d2-da65-44f3-ba62-58328d7a3858}, ! Version UUID
  1363981751,                             ! Creation Timestamp
  1363981751,                             ! Version Timestamp
  {aaa4d495-8851-46a7-b8c5-b472c8c49d22}, ! Name of Object 1
  {a4cfe00d-5615-4c2e-9443-defb660cc285}, ! Name of Object 2
  {8fe5cef9-bb7f-4a36-819e-45740334111c}, ! Name of Object 3
  {d38b9b55-53cc-4226-b3d5-ae830fb629ca}; ! Name of Object 4

