
OS:Version,
  {1c47e8f4-def1-4228-be9b-0c3b8c866094}, ! Handle
  0.9.3;                                  ! Version Identifier

OS:ComponentCost:LineItem,
  {461322a3-c2d7-45ab-889b-4ce622bdc8fd}, ! Handle
  90.1-2007 Res 7A Ext Slab Unheated - 4in Slab with Carpet, ! Name
  ,                                       ! Type
  Construction,                           ! Line Item Type
  90.1-2007 Res 7A Ext Slab Unheated - 4in Slab with Carpet, ! Item Name
  ,                                       ! Object End Use Key
  ,                                       ! Quantity {dimensionless}
  45.52,                                  ! Material Cost {$}
  CostPerArea;                            ! Material Cost Units

OS:Material:NoMass,
  {cd4627f5-8723-4edf-aa1b-909ddca1d0b8}, ! Handle
  CP02 CARPET PAD,                        ! Name
  VeryRough,                              ! Roughness
  0.21648,                                ! Thermal Resistance {m2-K/W}
  0.9,                                    ! Thermal Absorptance
  0.7,                                    ! Solar Absorptance
  0.8;                                    ! Visible Absorptance

OS:Material,
  {5a2fb7a7-0c70-482a-b840-43ef1073682b}, ! Handle
  MAT-CC05 4 HW CONCRETE,                 ! Name
  Rough,                                  ! Roughness
  0.1016,                                 ! Thickness {m}
  1.311,                                  ! Conductivity {W/m-K}
  2240,                                   ! Density {kg/m3}
  836.8,                                  ! Specific Heat {J/kg-K}
  0.9,                                    ! Thermal Absorptance
  0.7,                                    ! Solar Absorptance
  0.7;                                    ! Visible Absorptance

OS:Construction,
  {e05a8d18-d44d-47e8-91ff-fbee2cec0db5}, ! Handle
  90.1-2007 Res 7A Ext Slab Unheated - 4in Slab with Carpet, ! Name
  ,                                       ! Surface Rendering Name
  {5a2fb7a7-0c70-482a-b840-43ef1073682b}, ! Layer 1
  {cd4627f5-8723-4edf-aa1b-909ddca1d0b8}; ! Layer 2

