
OS:Version,
  {cd5ddc61-7869-4808-9998-505de69ebb81}, ! Handle
  0.9.3;                                  ! Version Identifier

OS:ComponentCost:LineItem,
  {7aa1f83f-986b-48f6-ab7d-3ff85a5f3ed8}, ! Handle
  90.1-2007 Res 1A Ext Wall Metal Building, ! Name
  ,                                       ! Type
  Construction,                           ! Line Item Type
  90.1-2007 Res 1A Ext Wall Metal Building, ! Item Name
  ,                                       ! Object End Use Key
  ,                                       ! Quantity {dimensionless}
  98.777,                                 ! Material Cost {$}
  CostPerArea;                            ! Material Cost Units

OS:Material,
  {ccc36753-4b57-40c1-91fb-b155eec64671}, ! Handle
  Wall Insulation [23],                   ! Name
  MediumRough,                            ! Roughness
  0.0598327,                              ! Thickness {m}
  0.045,                                  ! Conductivity {W/m-K}
  265,                                    ! Density {kg/m3}
  836.8,                                  ! Specific Heat {J/kg-K}
  0.9,                                    ! Thermal Absorptance
  0.7,                                    ! Solar Absorptance
  0.7;                                    ! Visible Absorptance

OS:Material,
  {2b307117-0f56-45d6-b0f3-ec41e1425c61}, ! Handle
  Metal Siding,                           ! Name
  Smooth,                                 ! Roughness
  0.0015,                                 ! Thickness {m}
  44.96,                                  ! Conductivity {W/m-K}
  7688.86,                                ! Density {kg/m3}
  410,                                    ! Specific Heat {J/kg-K}
  0.9,                                    ! Thermal Absorptance
  0.2,                                    ! Solar Absorptance
  0.2;                                    ! Visible Absorptance

OS:Material,
  {a7fb6cd2-6a7f-4234-8618-4a3806cf8477}, ! Handle
  1/2IN Gypsum,                           ! Name
  Smooth,                                 ! Roughness
  0.01271,                                ! Thickness {m}
  0.16,                                   ! Conductivity {W/m-K}
  784.9,                                  ! Density {kg/m3}
  830,                                    ! Specific Heat {J/kg-K}
  0.9,                                    ! Thermal Absorptance
  0.92,                                   ! Solar Absorptance
  0.92;                                   ! Visible Absorptance

OS:Construction,
  {4e05dd83-091f-4a13-92dd-d105436b6de6}, ! Handle
  90.1-2007 Res 1A Ext Wall Metal Building, ! Name
  ,                                       ! Surface Rendering Name
  {2b307117-0f56-45d6-b0f3-ec41e1425c61}, ! Layer 1
  {ccc36753-4b57-40c1-91fb-b155eec64671}, ! Layer 2
  {a7fb6cd2-6a7f-4234-8618-4a3806cf8477}; ! Layer 3

