
OS:Version,
  {330049a0-4df8-4db1-bfe9-a5a7de1493d6}, ! Handle
  0.9.3;                                  ! Version Identifier

OS:ComponentCost:LineItem,
  {dbf9d063-805b-4f48-9a3c-816ffef83561}, ! Handle
  90.1-1999 Res B7 Ext Wall Steel-Framed, ! Name
  ,                                       ! Type
  Construction,                           ! Line Item Type
  90.1-1999 Res B7 Ext Wall Steel-Framed, ! Item Name
  ,                                       ! Object End Use Key
  ,                                       ! Quantity {dimensionless}
  87.08,                                  ! Material Cost {$}
  CostPerArea;                            ! Material Cost Units

OS:Material:NoMass,
  {339ec3cd-3f80-408a-871c-1afd4743671d}, ! Handle
  MAT-SHEATH,                             ! Name
  Rough,                                  ! Roughness
  0.36256,                                ! Thermal Resistance {m2-K/W}
  0.9,                                    ! Thermal Absorptance
  0.7,                                    ! Solar Absorptance
  0.7;                                    ! Visible Absorptance

OS:Material,
  {f19901ba-2a5a-4191-b007-2694cbd2153c}, ! Handle
  1/2IN Gypsum,                           ! Name
  Smooth,                                 ! Roughness
  0.01271,                                ! Thickness {m}
  0.16,                                   ! Conductivity {W/m-K}
  784.9,                                  ! Density {kg/m3}
  830,                                    ! Specific Heat {J/kg-K}
  0.9,                                    ! Thermal Absorptance
  0.92,                                   ! Solar Absorptance
  0.92;                                   ! Visible Absorptance

OS:Material,
  {5036ed2b-4e6f-42fb-b089-4d6141879b51}, ! Handle
  Wall Insulation [1],                    ! Name
  MediumRough,                            ! Roughness
  0.0373223,                              ! Thickness {m}
  0.045,                                  ! Conductivity {W/m-K}
  265,                                    ! Density {kg/m3}
  836.8,                                  ! Specific Heat {J/kg-K}
  0.9,                                    ! Thermal Absorptance
  0.7,                                    ! Solar Absorptance
  0.7;                                    ! Visible Absorptance

OS:Construction,
  {ffd04614-40cd-4954-a28f-ce0e6cdf555f}, ! Handle
  90.1-1999 Res B7 Ext Wall Steel-Framed, ! Name
  ,                                       ! Surface Rendering Name
  {339ec3cd-3f80-408a-871c-1afd4743671d}, ! Layer 1
  {5036ed2b-4e6f-42fb-b089-4d6141879b51}, ! Layer 2
  {f19901ba-2a5a-4191-b007-2694cbd2153c}; ! Layer 3

