
OS:Version,
  {3a3aa9bc-8b13-4f5b-af5d-2a990df72ce5}, !- Handle
  1.1.0;                                  !- Version Identifier

OS:Construction,
  {9d181bec-f859-4cc5-8469-472b2704db71}, !- Handle
  Dbl Ref-C-L Tint 6mm/13mm Arg,          !- Name
  ,                                       !- Surface Rendering Name
  {c88cb503-8d9c-4555-8baf-bba3226aa95c}, !- Layer 1
  {a85dc9a3-bb38-403f-a802-47934f1edbcf}, !- Layer 2
  {286da1bb-31e5-4dee-b289-7cf200ba9dc0}; !- Layer 3

OS:WindowMaterial:Glazing,
  {c88cb503-8d9c-4555-8baf-bba3226aa95c}, !- Handle
  REF C TINT LO 6MM,                      !- Name
  SpectralAverage,                        !- Optical Data Type
  ,                                       !- Window Glass Spectral Data Set Name
  0.006,                                  !- Thickness {m}
  0.07,                                   !- Solar Transmittance at Normal Incidence
  0.13,                                   !- Front Side Solar Reflectance at Normal Incidence
  0.49,                                   !- Back Side Solar Reflectance at Normal Incidence
  0.08,                                   !- Visible Transmittance at Normal Incidence
  0.13,                                   !- Front Side Visible Reflectance at Normal Incidence
  0.42,                                   !- Back Side Visible Reflectance at Normal Incidence
  0,                                      !- Infrared Transmittance at Normal Incidence
  0.84,                                   !- Front Side Infrared Hemispherical Emissivity
  0.43,                                   !- Back Side Infrared Hemispherical Emissivity
  0.9;                                    !- Conductivity {W/m-K}

OS:WindowMaterial:Gas,
  {a85dc9a3-bb38-403f-a802-47934f1edbcf}, !- Handle
  ARGON 13MM,                             !- Name
  Argon,                                  !- Gas Type
  0.0127;                                 !- Thickness {m}

OS:WindowMaterial:Glazing,
  {286da1bb-31e5-4dee-b289-7cf200ba9dc0}, !- Handle
  CLEAR 6MM,                              !- Name
  SpectralAverage,                        !- Optical Data Type
  ,                                       !- Window Glass Spectral Data Set Name
  0.006,                                  !- Thickness {m}
  0.775,                                  !- Solar Transmittance at Normal Incidence
  0.071,                                  !- Front Side Solar Reflectance at Normal Incidence
  0.071,                                  !- Back Side Solar Reflectance at Normal Incidence
  0.881,                                  !- Visible Transmittance at Normal Incidence
  0.08,                                   !- Front Side Visible Reflectance at Normal Incidence
  0.08,                                   !- Back Side Visible Reflectance at Normal Incidence
  0,                                      !- Infrared Transmittance at Normal Incidence
  0.84,                                   !- Front Side Infrared Hemispherical Emissivity
  0.84,                                   !- Back Side Infrared Hemispherical Emissivity
  0.9;                                    !- Conductivity {W/m-K}

