
OS:Version,
  {60b2aae3-fbe2-4347-8ef6-d515a2a6d6c1}, ! Handle
  0.9.3;                                  ! Version Identifier

OS:Construction,
  {396a49a4-4e2d-4a15-ae85-59600b701a3e}, ! Handle
  90.1-2001 Nonres B6 Ext Slab Unheated - 8in Slab with Carpet, ! Name
  ,                                       ! Surface Rendering Name
  {68ae4cb9-aa90-4add-9823-2445e4aaec14}, ! Layer 1
  {389df991-0013-4483-b2a0-eb723dcc8354}; ! Layer 2

OS:Material,
  {68ae4cb9-aa90-4add-9823-2445e4aaec14}, ! Handle
  MAT-CC05 8 HW CONCRETE,                 ! Name
  Rough,                                  ! Roughness
  0.20321,                                ! Thickness {m}
  1.311,                                  ! Conductivity {W/m-K}
  2240,                                   ! Density {kg/m3}
  836.8,                                  ! Specific Heat {J/kg-K}
  0.9,                                    ! Thermal Absorptance
  0.7,                                    ! Solar Absorptance
  0.7;                                    ! Visible Absorptance

OS:Material:NoMass,
  {389df991-0013-4483-b2a0-eb723dcc8354}, ! Handle
  CP02 CARPET PAD,                        ! Name
  VeryRough,                              ! Roughness
  0.21648,                                ! Thermal Resistance {m2-K/W}
  0.9,                                    ! Thermal Absorptance
  0.7,                                    ! Solar Absorptance
  0.8;                                    ! Visible Absorptance

OS:ComponentCost:LineItem,
  {aecc4b2e-8a7e-460a-a6bf-2d1bd210500a}, ! Handle
  90.1-2001 Nonres B6 Ext Slab Unheated - 8in Slab with Carpet, ! Name
  ,                                       ! Type
  Construction,                           ! Line Item Type
  90.1-2001 Nonres B6 Ext Slab Unheated - 8in Slab with Carpet, ! Item Name
  ,                                       ! Object End Use Key
  ,                                       ! Quantity {dimensionless}
  45.52,                                  ! Material Cost {$}
  CostPerArea;                            ! Material Cost Units

OS:ComponentData,
  {d91ac1c8-cc52-4650-b30c-e21743cf64a8}, ! Handle
  Component Data 1,                       ! Name
  {499c1d56-3cc0-4b1b-a542-8a871c073dd8}, ! UUID
  {897bb1a1-e745-4ebd-9141-d8c9e4ab1170}, ! Version UUID
  1363981317,                             ! Creation Timestamp
  1363981317,                             ! Version Timestamp
  {396a49a4-4e2d-4a15-ae85-59600b701a3e}, ! Name of Object 1
  {68ae4cb9-aa90-4add-9823-2445e4aaec14}, ! Name of Object 2
  {389df991-0013-4483-b2a0-eb723dcc8354}, ! Name of Object 3
  {aecc4b2e-8a7e-460a-a6bf-2d1bd210500a}; ! Name of Object 4

