
OS:Version,
  {c9eb01e6-71ba-431a-a432-0c8f4859877e}, ! Handle
  0.9.3;                                  ! Version Identifier

OS:Material:NoMass,
  {76a708a8-f683-4965-9f34-b6c5c3d81d94}, ! Handle
  MAT-SHEATH,                             ! Name
  Rough,                                  ! Roughness
  0.36256,                                ! Thermal Resistance {m2-K/W}
  0.9,                                    ! Thermal Absorptance
  0.7,                                    ! Solar Absorptance
  0.7;                                    ! Visible Absorptance

OS:ComponentCost:LineItem,
  {b1f15d26-91d2-44e1-8775-d9ff72e461d9}, ! Handle
  90.1-2001 Nonres B18 Ext Wall Steel-Framed, ! Name
  ,                                       ! Type
  Construction,                           ! Line Item Type
  90.1-2001 Nonres B18 Ext Wall Steel-Framed, ! Item Name
  ,                                       ! Object End Use Key
  ,                                       ! Quantity {dimensionless}
  87.08,                                  ! Material Cost {$}
  CostPerArea;                            ! Material Cost Units

OS:Material,
  {cece3b03-82c0-4985-b83d-1607a5d3660e}, ! Handle
  1/2IN Gypsum,                           ! Name
  Smooth,                                 ! Roughness
  0.01271,                                ! Thickness {m}
  0.16,                                   ! Conductivity {W/m-K}
  784.9,                                  ! Density {kg/m3}
  830,                                    ! Specific Heat {J/kg-K}
  0.9,                                    ! Thermal Absorptance
  0.92,                                   ! Solar Absorptance
  0.92;                                   ! Visible Absorptance

OS:Construction,
  {d25d3043-5a6e-44d6-944f-f9ef4f8437d3}, ! Handle
  90.1-2001 Nonres B18 Ext Wall Steel-Framed, ! Name
  ,                                       ! Surface Rendering Name
  {76a708a8-f683-4965-9f34-b6c5c3d81d94}, ! Layer 1
  {4c2cbee9-09b4-4e47-98ee-1ee6346ee0c5}, ! Layer 2
  {cece3b03-82c0-4985-b83d-1607a5d3660e}; ! Layer 3

OS:Material,
  {4c2cbee9-09b4-4e47-98ee-1ee6346ee0c5}, ! Handle
  Wall Insulation [1],                    ! Name
  MediumRough,                            ! Roughness
  0.0373223,                              ! Thickness {m}
  0.045,                                  ! Conductivity {W/m-K}
  265,                                    ! Density {kg/m3}
  836.8,                                  ! Specific Heat {J/kg-K}
  0.9,                                    ! Thermal Absorptance
  0.7,                                    ! Solar Absorptance
  0.7;                                    ! Visible Absorptance

