
OS:Version,
  {1f3cbf7e-d03c-45eb-aad3-4b10689c2af6}, ! Handle
  0.9.3;                                  ! Version Identifier

OS:Material,
  {e2d08754-0c47-4b32-9575-c5f9e3153792}, ! Handle
  1/2IN Gypsum,                           ! Name
  Smooth,                                 ! Roughness
  0.01271,                                ! Thickness {m}
  0.16,                                   ! Conductivity {W/m-K}
  784.9,                                  ! Density {kg/m3}
  830,                                    ! Specific Heat {J/kg-K}
  0.9,                                    ! Thermal Absorptance
  0.92,                                   ! Solar Absorptance
  0.92;                                   ! Visible Absorptance

OS:Material,
  {dd585c3c-2a3a-473b-89cf-1b9b3f4715de}, ! Handle
  Wall Insulation [2],                    ! Name
  MediumRough,                            ! Roughness
  0.0746874,                              ! Thickness {m}
  0.045,                                  ! Conductivity {W/m-K}
  265,                                    ! Density {kg/m3}
  836.8,                                  ! Specific Heat {J/kg-K}
  0.9,                                    ! Thermal Absorptance
  0.7,                                    ! Solar Absorptance
  0.7;                                    ! Visible Absorptance

OS:Material,
  {c13d13be-5d0a-4477-9b1e-d9a6db65c265}, ! Handle
  Wood Siding,                            ! Name
  MediumSmooth,                           ! Roughness
  0.01,                                   ! Thickness {m}
  0.11,                                   ! Conductivity {W/m-K}
  544.62,                                 ! Density {kg/m3}
  1210,                                   ! Specific Heat {J/kg-K}
  0.9,                                    ! Thermal Absorptance
  0.78,                                   ! Solar Absorptance
  0.78;                                   ! Visible Absorptance

OS:Construction,
  {6f178de1-2331-4fef-b07d-9724bea5f762}, ! Handle
  90.1-2001 Nonres B18 Ext Wall Wood-Framed and Other, ! Name
  ,                                       ! Surface Rendering Name
  {c13d13be-5d0a-4477-9b1e-d9a6db65c265}, ! Layer 1
  {dd585c3c-2a3a-473b-89cf-1b9b3f4715de}, ! Layer 2
  {e2d08754-0c47-4b32-9575-c5f9e3153792}; ! Layer 3

OS:ComponentCost:LineItem,
  {20c60306-0d92-4dbc-8c4b-13516bafa0e2}, ! Handle
  90.1-2001 Nonres B18 Ext Wall Wood-Framed and Other, ! Name
  ,                                       ! Type
  Construction,                           ! Line Item Type
  90.1-2001 Nonres B18 Ext Wall Wood-Framed and Other, ! Item Name
  ,                                       ! Object End Use Key
  ,                                       ! Quantity {dimensionless}
  73.056,                                 ! Material Cost {$}
  CostPerArea;                            ! Material Cost Units

