
OS:Version,
  {addee4b7-c21e-4fd2-9a52-d4569e35170e}, ! Handle
  0.9.3;                                  ! Version Identifier

OS:WindowMaterial:Glazing,
  {ecf3795d-ae56-468c-8da4-9f654ee75067}, ! Handle
  Theoretical Glass [679],                ! Name
  SpectralAverage,                        ! Optical Data Type
  ,                                       ! Window Glass Spectral Data Set Name
  0.003,                                  ! Thickness {m}
  0.387604,                               ! Solar Transmittance at Normal Incidence
  0.562396,                               ! Front Side Solar Reflectance at Normal Incidence
  0.562396,                               ! Back Side Solar Reflectance at Normal Incidence
  0.400004,                               ! Visible Transmittance at Normal Incidence
  0.549996,                               ! Front Side Visible Reflectance at Normal Incidence
  0.549996,                               ! Back Side Visible Reflectance at Normal Incidence
  0,                                      ! Infrared Transmittance at Normal Incidence
  0.91,                                   ! Front Side Infrared Hemispherical Emissivity
  0.91,                                   ! Back Side Infrared Hemispherical Emissivity
  0.387053;                               ! Conductivity {W/m-K}

OS:Construction,
  {8c736105-56e2-492b-9404-da464f221f33}, ! Handle
  Title 24-2008 Nonres 9 Skylight Glass Skylight with Curb, ! Name
  ,                                       ! Surface Rendering Name
  {ecf3795d-ae56-468c-8da4-9f654ee75067}; ! Layer 1

OS:ComponentCost:LineItem,
  {92547ebe-8336-44ad-a125-7d7e0b807ae2}, ! Handle
  Title 24-2008 Nonres 9 Skylight Glass Skylight with Curb, ! Name
  ,                                       ! Type
  Construction,                           ! Line Item Type
  Title 24-2008 Nonres 9 Skylight Glass Skylight with Curb, ! Item Name
  ,                                       ! Object End Use Key
  ,                                       ! Quantity {dimensionless}
  501.798,                                ! Material Cost {$}
  CostPerArea;                            ! Material Cost Units

