
! 
OS:Version,
  {8503bb35-3288-4176-9c41-752f3d976c4b}, !- Handle
  1.13.0;                                 !- Version Identifier


! 
OS:Material,
  {6f29f2ce-f60c-4a1c-a49f-4200d0cb1173}, !- Handle
  Aislamiento: SATE
WEBER: weber.therm placa EPS grafito 10 (0.010 m)
R: 0.3 m2K/W,                             !- Name
  MediumRough,                                 !- Roughness
  0.01,                                    !- Thickness {m}
  0.032,                                    !- Conductivity {W/m-K}
  15.0,                                    !- Density {kg/m3}
  800.0,                                    !- Specific Heat {J/kg-K}
  0.9,                                    !- Thermal Absorptance
  0.6,                                    !- Solar Absorptance
  0.6;                                    !- Visible Absorptance

