
OS:Version,
  {0e171cd0-2bc1-403b-b576-d0a199405160}, ! Handle
  0.9.3;                                  ! Version Identifier

OS:Material,
  {1c19c746-8be6-4056-b730-f0ac45fec34f}, ! Handle
  Wall Insulation [2],                    ! Name
  MediumRough,                            ! Roughness
  0.0746874,                              ! Thickness {m}
  0.045,                                  ! Conductivity {W/m-K}
  265,                                    ! Density {kg/m3}
  836.8,                                  ! Specific Heat {J/kg-K}
  0.9,                                    ! Thermal Absorptance
  0.7,                                    ! Solar Absorptance
  0.7;                                    ! Visible Absorptance

OS:Material,
  {cc9dbf3c-6515-4e39-af2b-e1e25068ad37}, ! Handle
  Wood Siding,                            ! Name
  MediumSmooth,                           ! Roughness
  0.01,                                   ! Thickness {m}
  0.11,                                   ! Conductivity {W/m-K}
  544.62,                                 ! Density {kg/m3}
  1210,                                   ! Specific Heat {J/kg-K}
  0.9,                                    ! Thermal Absorptance
  0.78,                                   ! Solar Absorptance
  0.78;                                   ! Visible Absorptance

OS:Material,
  {1985f99f-a37b-40ad-966e-4f9ca2823055}, ! Handle
  1/2IN Gypsum,                           ! Name
  Smooth,                                 ! Roughness
  0.01271,                                ! Thickness {m}
  0.16,                                   ! Conductivity {W/m-K}
  784.9,                                  ! Density {kg/m3}
  830,                                    ! Specific Heat {J/kg-K}
  0.9,                                    ! Thermal Absorptance
  0.92,                                   ! Solar Absorptance
  0.92;                                   ! Visible Absorptance

OS:ComponentCost:LineItem,
  {bcd2a0a0-6e9b-43fb-abeb-73797768a483}, ! Handle
  90.1-2001 Res B8 Ext Wall Wood-Framed and Other, ! Name
  ,                                       ! Type
  Construction,                           ! Line Item Type
  90.1-2001 Res B8 Ext Wall Wood-Framed and Other, ! Item Name
  ,                                       ! Object End Use Key
  ,                                       ! Quantity {dimensionless}
  73.056,                                 ! Material Cost {$}
  CostPerArea;                            ! Material Cost Units

OS:Construction,
  {5b9b2938-2acf-4fdf-b79f-3f42cc105681}, ! Handle
  90.1-2001 Res B8 Ext Wall Wood-Framed and Other, ! Name
  ,                                       ! Surface Rendering Name
  {cc9dbf3c-6515-4e39-af2b-e1e25068ad37}, ! Layer 1
  {1c19c746-8be6-4056-b730-f0ac45fec34f}, ! Layer 2
  {1985f99f-a37b-40ad-966e-4f9ca2823055}; ! Layer 3

