
OS:Version,
  {764861c3-8a28-4418-a870-f3e10efdb9e5}, ! Handle
  0.9.3;                                  ! Version Identifier

OS:Construction,
  {556c132f-4069-48ad-9b3e-e44a9a0e8a3e}, ! Handle
  189.1-2009 Res 3A Ext Wall Wood-Framed and Other, ! Name
  ,                                       ! Surface Rendering Name
  {7189730b-13c2-4672-923e-bb8a7fead138}, ! Layer 1
  {471a4e97-3bd4-46ed-8b48-12d58a68b229}, ! Layer 2
  {afb02cba-5c51-4243-b3e6-75e83a381a8f}; ! Layer 3

OS:Material,
  {7189730b-13c2-4672-923e-bb8a7fead138}, ! Handle
  Wood Siding,                            ! Name
  MediumSmooth,                           ! Roughness
  0.01,                                   ! Thickness {m}
  0.11,                                   ! Conductivity {W/m-K}
  544.62,                                 ! Density {kg/m3}
  1210,                                   ! Specific Heat {J/kg-K}
  0.9,                                    ! Thermal Absorptance
  0.78,                                   ! Solar Absorptance
  0.78;                                   ! Visible Absorptance

OS:Material,
  {471a4e97-3bd4-46ed-8b48-12d58a68b229}, ! Handle
  Wall Insulation [34],                   ! Name
  MediumRough,                            ! Roughness
  0.110422,                               ! Thickness {m}
  0.045,                                  ! Conductivity {W/m-K}
  265,                                    ! Density {kg/m3}
  836.8,                                  ! Specific Heat {J/kg-K}
  0.9,                                    ! Thermal Absorptance
  0.7,                                    ! Solar Absorptance
  0.7;                                    ! Visible Absorptance

OS:Material,
  {afb02cba-5c51-4243-b3e6-75e83a381a8f}, ! Handle
  1/2IN Gypsum,                           ! Name
  Smooth,                                 ! Roughness
  0.01271,                                ! Thickness {m}
  0.16,                                   ! Conductivity {W/m-K}
  784.9,                                  ! Density {kg/m3}
  830,                                    ! Specific Heat {J/kg-K}
  0.9,                                    ! Thermal Absorptance
  0.92,                                   ! Solar Absorptance
  0.92;                                   ! Visible Absorptance

OS:ComponentCost:LineItem,
  {44e31029-2b1c-4f53-94e4-de0da63f27c1}, ! Handle
  189.1-2009 Res 3A Ext Wall Wood-Framed and Other, ! Name
  ,                                       ! Type
  Construction,                           ! Line Item Type
  189.1-2009 Res 3A Ext Wall Wood-Framed and Other, ! Item Name
  ,                                       ! Object End Use Key
  ,                                       ! Quantity {dimensionless}
  77.743,                                 ! Material Cost {$}
  CostPerArea;                            ! Material Cost Units

OS:ComponentData,
  {832b84a3-e660-46ff-bb33-2aa741235cc9}, ! Handle
  Component Data 1,                       ! Name
  {77478dcc-9aa3-4832-8748-9b3d563678ae}, ! UUID
  {5f52bdc5-6809-434e-a0cb-d867b2460eec}, ! Version UUID
  1363980967,                             ! Creation Timestamp
  1363980967,                             ! Version Timestamp
  {556c132f-4069-48ad-9b3e-e44a9a0e8a3e}, ! Name of Object 1
  {7189730b-13c2-4672-923e-bb8a7fead138}, ! Name of Object 2
  {471a4e97-3bd4-46ed-8b48-12d58a68b229}, ! Name of Object 3
  {afb02cba-5c51-4243-b3e6-75e83a381a8f}, ! Name of Object 4
  {44e31029-2b1c-4f53-94e4-de0da63f27c1}; ! Name of Object 5

