
OS:Version,
  {50da5f3f-3bc7-4bb1-ba98-02a96fa8ac5a}, ! Handle
  0.9.3;                                  ! Version Identifier

OS:Material,
  {145453d1-9121-410a-bfc4-0f1978be1f21}, ! Handle
  Wall Insulation [34],                   ! Name
  MediumRough,                            ! Roughness
  0.110422,                               ! Thickness {m}
  0.045,                                  ! Conductivity {W/m-K}
  265,                                    ! Density {kg/m3}
  836.8,                                  ! Specific Heat {J/kg-K}
  0.9,                                    ! Thermal Absorptance
  0.7,                                    ! Solar Absorptance
  0.7;                                    ! Visible Absorptance

OS:ComponentCost:LineItem,
  {9b86bf94-b270-458e-ad0b-ff5178c0c0ab}, ! Handle
  189.1-2009 Res 3A Ext Wall Wood-Framed and Other, ! Name
  ,                                       ! Type
  Construction,                           ! Line Item Type
  189.1-2009 Res 3A Ext Wall Wood-Framed and Other, ! Item Name
  ,                                       ! Object End Use Key
  ,                                       ! Quantity {dimensionless}
  77.743,                                 ! Material Cost {$}
  CostPerArea;                            ! Material Cost Units

OS:Material,
  {5f4d60dc-8f52-4654-b1ea-7cd9d48294bf}, ! Handle
  Wood Siding,                            ! Name
  MediumSmooth,                           ! Roughness
  0.01,                                   ! Thickness {m}
  0.11,                                   ! Conductivity {W/m-K}
  544.62,                                 ! Density {kg/m3}
  1210,                                   ! Specific Heat {J/kg-K}
  0.9,                                    ! Thermal Absorptance
  0.78,                                   ! Solar Absorptance
  0.78;                                   ! Visible Absorptance

OS:Material,
  {86ba8c50-bfea-4477-ac93-2d71aea69418}, ! Handle
  1/2IN Gypsum,                           ! Name
  Smooth,                                 ! Roughness
  0.01271,                                ! Thickness {m}
  0.16,                                   ! Conductivity {W/m-K}
  784.9,                                  ! Density {kg/m3}
  830,                                    ! Specific Heat {J/kg-K}
  0.9,                                    ! Thermal Absorptance
  0.92,                                   ! Solar Absorptance
  0.92;                                   ! Visible Absorptance

OS:Construction,
  {541e6331-3f21-41dd-9796-e3c093fe7bcc}, ! Handle
  189.1-2009 Res 3A Ext Wall Wood-Framed and Other, ! Name
  ,                                       ! Surface Rendering Name
  {5f4d60dc-8f52-4654-b1ea-7cd9d48294bf}, ! Layer 1
  {145453d1-9121-410a-bfc4-0f1978be1f21}, ! Layer 2
  {86ba8c50-bfea-4477-ac93-2d71aea69418}; ! Layer 3

