
OS:Version,
  {0a01d675-ad19-43ad-878c-754264b003d8}, ! Handle
  0.9.3;                                  ! Version Identifier

OS:Construction,
  {d9244c84-2f22-48be-b56b-220fe168a17f}, ! Handle
  AEDG K12 Nonres 1A Exposed Floor Mass,  ! Name
  ,                                       ! Surface Rendering Name
  {7acdcd55-dd66-4049-af74-8a6f56d492b8}, ! Layer 1
  {bdeb0540-5ca0-4a4d-a661-c210e9e75a5c}; ! Layer 2

OS:Material,
  {7acdcd55-dd66-4049-af74-8a6f56d492b8}, ! Handle
  MAT-CC05 8 HW CONCRETE,                 ! Name
  Rough,                                  ! Roughness
  0.20321,                                ! Thickness {m}
  1.311,                                  ! Conductivity {W/m-K}
  2240,                                   ! Density {kg/m3}
  836.8,                                  ! Specific Heat {J/kg-K}
  0.9,                                    ! Thermal Absorptance
  0.7,                                    ! Solar Absorptance
  0.7;                                    ! Visible Absorptance

OS:Material:NoMass,
  {bdeb0540-5ca0-4a4d-a661-c210e9e75a5c}, ! Handle
  CP02 CARPET PAD EF,                     ! Name
  VeryRough,                              ! Roughness
  0.21648,                                ! Thermal Resistance {m2-K/W}
  0.9,                                    ! Thermal Absorptance
  0.7,                                    ! Solar Absorptance
  0.8;                                    ! Visible Absorptance

OS:ComponentCost:LineItem,
  {7ab7bd18-2954-4216-ae4a-1519fbee18f6}, ! Handle
  AEDG K12 Nonres 1A Exposed Floor Mass,  ! Name
  ,                                       ! Type
  Construction,                           ! Line Item Type
  AEDG K12 Nonres 1A Exposed Floor Mass,  ! Item Name
  ,                                       ! Object End Use Key
  ,                                       ! Quantity {dimensionless}
  39.18,                                  ! Material Cost {$}
  CostPerArea;                            ! Material Cost Units

