
OS:Version,
  {8bd7210d-29c9-4387-ad7d-61b5afd32225}, !- Handle
  1.1.0;                                  !- Version Identifier

OS:Construction,
  {493a772d-c564-4234-bc92-a16a7d95f466}, !- Handle
  Sgl Clr Low Iron 3mm,                   !- Name
  ,                                       !- Surface Rendering Name
  {e0e00360-5c39-4b9a-8cb7-9052ed74bb07}; !- Layer 1

OS:WindowMaterial:Glazing,
  {e0e00360-5c39-4b9a-8cb7-9052ed74bb07}, !- Handle
  LOW IRON 3MM,                           !- Name
  SpectralAverage,                        !- Optical Data Type
  ,                                       !- Window Glass Spectral Data Set Name
  0.003,                                  !- Thickness {m}
  0.899,                                  !- Solar Transmittance at Normal Incidence
  0.079,                                  !- Front Side Solar Reflectance at Normal Incidence
  0.079,                                  !- Back Side Solar Reflectance at Normal Incidence
  0.913,                                  !- Visible Transmittance at Normal Incidence
  0.082,                                  !- Front Side Visible Reflectance at Normal Incidence
  0.082,                                  !- Back Side Visible Reflectance at Normal Incidence
  0,                                      !- Infrared Transmittance at Normal Incidence
  0.84,                                   !- Front Side Infrared Hemispherical Emissivity
  0.84,                                   !- Back Side Infrared Hemispherical Emissivity
  0.9;                                    !- Conductivity {W/m-K}

