
OS:Version,
  {76236f21-2d84-4dd2-bdad-5d3c25dc837e}, !- Handle
  1.1.0;                                  !- Version Identifier

OS:Construction,
  {d34944b4-47d3-4ae3-a752-3a90969b015a}, !- Handle
  Sgl Clr Low Iron 3mm,                   !- Name
  ,                                       !- Surface Rendering Name
  {fbd3544c-21ea-48d8-a0aa-706b326711ec}; !- Layer 1

OS:WindowMaterial:Glazing,
  {fbd3544c-21ea-48d8-a0aa-706b326711ec}, !- Handle
  LOW IRON 3MM,                           !- Name
  SpectralAverage,                        !- Optical Data Type
  ,                                       !- Window Glass Spectral Data Set Name
  0.003,                                  !- Thickness {m}
  0.899,                                  !- Solar Transmittance at Normal Incidence
  0.079,                                  !- Front Side Solar Reflectance at Normal Incidence
  0.079,                                  !- Back Side Solar Reflectance at Normal Incidence
  0.913,                                  !- Visible Transmittance at Normal Incidence
  0.082,                                  !- Front Side Visible Reflectance at Normal Incidence
  0.082,                                  !- Back Side Visible Reflectance at Normal Incidence
  0,                                      !- Infrared Transmittance at Normal Incidence
  0.84,                                   !- Front Side Infrared Hemispherical Emissivity
  0.84,                                   !- Back Side Infrared Hemispherical Emissivity
  0.9;                                    !- Conductivity {W/m-K}

OS:ComponentData,
  {3d0a85ff-2fd7-4e44-90a6-64773e513354}, !- Handle
  Component Data 1,                       !- Name
  {3db93a65-9fd3-4c9b-a1a4-2974e79ceb92}, !- UUID
  {4440e35b-f3f2-4470-b1d3-a632d0e54922}, !- Version UUID
  1384380192,                             !- Creation Timestamp
  1384380192,                             !- Version Timestamp
  {d34944b4-47d3-4ae3-a752-3a90969b015a}, !- Name of Object 1
  {fbd3544c-21ea-48d8-a0aa-706b326711ec}; !- Name of Object 2

