
OS:Version,
  {e4e280e9-9093-4a4a-8e25-6584d6bc36c3}, ! Handle
  0.9.3;                                  ! Version Identifier

OS:Construction,
  {057e592f-404a-450a-bc40-6b6ce238ae11}, ! Handle
  90.1-2001 Nonres B2 Skylight without Curb, ! Name
  ,                                       ! Surface Rendering Name
  {30131e41-21ec-42c2-814e-67bb43a20c20}; ! Layer 1

OS:WindowMaterial:Glazing,
  {30131e41-21ec-42c2-814e-67bb43a20c20}, ! Handle
  Theoretical Glass [8],                  ! Name
  SpectralAverage,                        ! Optical Data Type
  ,                                       ! Window Glass Spectral Data Set Name
  0.003,                                  ! Thickness {m}
  0.346104,                               ! Solar Transmittance at Normal Incidence
  0.603896,                               ! Front Side Solar Reflectance at Normal Incidence
  0.603896,                               ! Back Side Solar Reflectance at Normal Incidence
  0.376261,                               ! Visible Transmittance at Normal Incidence
  0.573739,                               ! Front Side Visible Reflectance at Normal Incidence
  0.573739,                               ! Back Side Visible Reflectance at Normal Incidence
  0,                                      ! Infrared Transmittance at Normal Incidence
  0.999,                                  ! Front Side Infrared Hemispherical Emissivity
  0.999,                                  ! Back Side Infrared Hemispherical Emissivity
  299.383;                                ! Conductivity {W/m-K}

OS:ComponentCost:LineItem,
  {169f400c-8ae4-4d18-9d21-a29a9927550a}, ! Handle
  90.1-2001 Nonres B2 Skylight without Curb, ! Name
  ,                                       ! Type
  Construction,                           ! Line Item Type
  90.1-2001 Nonres B2 Skylight without Curb, ! Item Name
  ,                                       ! Object End Use Key
  ,                                       ! Quantity {dimensionless}
  498.248,                                ! Material Cost {$}
  CostPerArea;                            ! Material Cost Units

