
OS:Version,
  {ec6a8993-e4c3-4c3e-8f38-adc80fdeb4dc}, ! Handle
  0.9.3;                                  ! Version Identifier

OS:Construction,
  {fbb223b9-1b3c-4dbb-ba6c-22b4b1862c19}, ! Handle
  Title 24-2008 Nonres 1 Skylight Glass Skylight with Curb, ! Name
  ,                                       ! Surface Rendering Name
  {b9367a3a-3f01-4a72-8193-2ee090ab569d}; ! Layer 1

OS:WindowMaterial:Glazing,
  {b9367a3a-3f01-4a72-8193-2ee090ab569d}, ! Handle
  Theoretical Glass [665],                ! Name
  SpectralAverage,                        ! Optical Data Type
  ,                                       ! Window Glass Spectral Data Set Name
  0.003,                                  ! Thickness {m}
  0.347698,                               ! Solar Transmittance at Normal Incidence
  0.602302,                               ! Front Side Solar Reflectance at Normal Incidence
  0.602302,                               ! Back Side Solar Reflectance at Normal Incidence
  0.360158,                               ! Visible Transmittance at Normal Incidence
  0.589842,                               ! Front Side Visible Reflectance at Normal Incidence
  0.589842,                               ! Back Side Visible Reflectance at Normal Incidence
  0,                                      ! Infrared Transmittance at Normal Incidence
  0.91,                                   ! Front Side Infrared Hemispherical Emissivity
  0.91,                                   ! Back Side Infrared Hemispherical Emissivity
  0.387053;                               ! Conductivity {W/m-K}

OS:ComponentCost:LineItem,
  {f2982f48-cb6f-41fb-ad9b-f2697475e10c}, ! Handle
  Title 24-2008 Nonres 1 Skylight Glass Skylight with Curb, ! Name
  ,                                       ! Type
  Construction,                           ! Line Item Type
  Title 24-2008 Nonres 1 Skylight Glass Skylight with Curb, ! Item Name
  ,                                       ! Object End Use Key
  ,                                       ! Quantity {dimensionless}
  480.601,                                ! Material Cost {$}
  CostPerArea;                            ! Material Cost Units

OS:ComponentData,
  {817da0d1-5060-43b3-9b31-0dcbf8be7292}, ! Handle
  Component Data 1,                       ! Name
  {aba8bfda-2aba-4450-b74f-12b681a59f94}, ! UUID
  {315aa4d9-89b7-4b57-9226-186ed50fdae5}, ! Version UUID
  1363981988,                             ! Creation Timestamp
  1363981988,                             ! Version Timestamp
  {fbb223b9-1b3c-4dbb-ba6c-22b4b1862c19}, ! Name of Object 1
  {b9367a3a-3f01-4a72-8193-2ee090ab569d}, ! Name of Object 2
  {f2982f48-cb6f-41fb-ad9b-f2697475e10c}; ! Name of Object 3

