
OS:Version,
  {00fc4c94-4fca-4e41-8851-9e0929d042ee}, ! Handle
  0.9.3;                                  ! Version Identifier

OS:Material,
  {e71cb345-3cd3-4ab8-8066-b0ebd52fed1f}, ! Handle
  MAT-CC05 8 HW CONCRETE,                 ! Name
  Rough,                                  ! Roughness
  0.20321,                                ! Thickness {m}
  1.311,                                  ! Conductivity {W/m-K}
  2240,                                   ! Density {kg/m3}
  836.8,                                  ! Specific Heat {J/kg-K}
  0.9,                                    ! Thermal Absorptance
  0.7,                                    ! Solar Absorptance
  0.7;                                    ! Visible Absorptance

OS:Construction,
  {7764bca8-048b-426c-b890-da3b0ea7786a}, ! Handle
  90.1-1999 Nonres B12 Ext Slab Unheated - 8in Slab without Carpet, ! Name
  ,                                       ! Surface Rendering Name
  {e71cb345-3cd3-4ab8-8066-b0ebd52fed1f}; ! Layer 1

OS:ComponentCost:LineItem,
  {691d8de8-2138-4753-b04b-abda05dfcd80}, ! Handle
  90.1-1999 Nonres B12 Ext Slab Unheated - 8in Slab without Carpet, ! Name
  ,                                       ! Type
  Construction,                           ! Line Item Type
  90.1-1999 Nonres B12 Ext Slab Unheated - 8in Slab without Carpet, ! Item Name
  ,                                       ! Object End Use Key
  ,                                       ! Quantity {dimensionless}
  45.52,                                  ! Material Cost {$}
  CostPerArea;                            ! Material Cost Units

