
OS:Version,
  {d769f094-2fc6-4a50-b13b-486ba9813d8e}, ! Handle
  0.9.3;                                  ! Version Identifier

OS:Construction,
  {3abe64b4-14bb-4da4-954e-c2289ddbcff3}, ! Handle
  90.1-1999 Nonres B12 Ext Slab Unheated - 8in Slab without Carpet, ! Name
  ,                                       ! Surface Rendering Name
  {cb7e0236-5eab-47bc-9160-c10872ac9536}; ! Layer 1

OS:Material,
  {cb7e0236-5eab-47bc-9160-c10872ac9536}, ! Handle
  MAT-CC05 8 HW CONCRETE,                 ! Name
  Rough,                                  ! Roughness
  0.20321,                                ! Thickness {m}
  1.311,                                  ! Conductivity {W/m-K}
  2240,                                   ! Density {kg/m3}
  836.8,                                  ! Specific Heat {J/kg-K}
  0.9,                                    ! Thermal Absorptance
  0.7,                                    ! Solar Absorptance
  0.7;                                    ! Visible Absorptance

OS:ComponentCost:LineItem,
  {9551df7b-cc1c-45bd-a523-eba373263c34}, ! Handle
  90.1-1999 Nonres B12 Ext Slab Unheated - 8in Slab without Carpet, ! Name
  ,                                       ! Type
  Construction,                           ! Line Item Type
  90.1-1999 Nonres B12 Ext Slab Unheated - 8in Slab without Carpet, ! Item Name
  ,                                       ! Object End Use Key
  ,                                       ! Quantity {dimensionless}
  45.52,                                  ! Material Cost {$}
  CostPerArea;                            ! Material Cost Units

OS:ComponentData,
  {1378dec4-2a1e-4285-bb7c-d18162fc8391}, ! Handle
  Component Data 1,                       ! Name
  {961ffb98-915e-4b77-883b-66e9f6468239}, ! UUID
  {ebf2723f-1973-4dc9-817c-99c51b44548b}, ! Version UUID
  1363981092,                             ! Creation Timestamp
  1363981092,                             ! Version Timestamp
  {3abe64b4-14bb-4da4-954e-c2289ddbcff3}, ! Name of Object 1
  {cb7e0236-5eab-47bc-9160-c10872ac9536}, ! Name of Object 2
  {9551df7b-cc1c-45bd-a523-eba373263c34}; ! Name of Object 3

