
OS:Version,
  {f9b71b95-9a7a-4165-9389-8557644c953c}, ! Handle
  0.9.3;                                  ! Version Identifier

OS:Construction,
  {929285d2-89a2-415e-9961-d45f0b59b305}, ! Handle
  189.1-2009 Res 3A Ext Slab Unheated - 4in Slab without Carpet, ! Name
  ,                                       ! Surface Rendering Name
  {f371e318-8ddc-4c25-9e9d-7303264c9bc6}; ! Layer 1

OS:Material,
  {f371e318-8ddc-4c25-9e9d-7303264c9bc6}, ! Handle
  MAT-CC05 4 HW CONCRETE,                 ! Name
  Rough,                                  ! Roughness
  0.1016,                                 ! Thickness {m}
  1.311,                                  ! Conductivity {W/m-K}
  2240,                                   ! Density {kg/m3}
  836.8,                                  ! Specific Heat {J/kg-K}
  0.9,                                    ! Thermal Absorptance
  0.7,                                    ! Solar Absorptance
  0.7;                                    ! Visible Absorptance

OS:ComponentCost:LineItem,
  {a9bd23f6-adfc-4592-ab52-1af2876d5c8f}, ! Handle
  189.1-2009 Res 3A Ext Slab Unheated - 4in Slab without Carpet, ! Name
  ,                                       ! Type
  Construction,                           ! Line Item Type
  189.1-2009 Res 3A Ext Slab Unheated - 4in Slab without Carpet, ! Item Name
  ,                                       ! Object End Use Key
  ,                                       ! Quantity {dimensionless}
  45.52,                                  ! Material Cost {$}
  CostPerArea;                            ! Material Cost Units

OS:ComponentData,
  {de5a58fb-3a5a-477c-965f-5d5875e22ed1}, ! Handle
  Component Data 1,                       ! Name
  {a4637beb-db1b-4f37-a320-d740ed897132}, ! UUID
  {0066c760-4387-4221-8972-020796a29998}, ! Version UUID
  1363980968,                             ! Creation Timestamp
  1363980968,                             ! Version Timestamp
  {929285d2-89a2-415e-9961-d45f0b59b305}, ! Name of Object 1
  {f371e318-8ddc-4c25-9e9d-7303264c9bc6}, ! Name of Object 2
  {a9bd23f6-adfc-4592-ab52-1af2876d5c8f}; ! Name of Object 3

