
OS:Version,
  {ad061fa5-0138-4b16-bcc4-a1654b8aa89d}, ! Handle
  0.9.3;                                  ! Version Identifier

OS:Material,
  {976238d8-9ba9-4c9e-9fc2-4c44fef7f70f}, ! Handle
  MAT-CC05 4 HW CONCRETE,                 ! Name
  Rough,                                  ! Roughness
  0.1016,                                 ! Thickness {m}
  1.311,                                  ! Conductivity {W/m-K}
  2240,                                   ! Density {kg/m3}
  836.8,                                  ! Specific Heat {J/kg-K}
  0.9,                                    ! Thermal Absorptance
  0.7,                                    ! Solar Absorptance
  0.7;                                    ! Visible Absorptance

OS:Construction,
  {feb184b5-bc01-4d0e-89ab-041fb839d62d}, ! Handle
  189.1-2009 Res 3A Ext Slab Unheated - 4in Slab without Carpet, ! Name
  ,                                       ! Surface Rendering Name
  {976238d8-9ba9-4c9e-9fc2-4c44fef7f70f}; ! Layer 1

OS:ComponentCost:LineItem,
  {b1e0eb6d-7992-4a7f-b98b-5364515c370f}, ! Handle
  189.1-2009 Res 3A Ext Slab Unheated - 4in Slab without Carpet, ! Name
  ,                                       ! Type
  Construction,                           ! Line Item Type
  189.1-2009 Res 3A Ext Slab Unheated - 4in Slab without Carpet, ! Item Name
  ,                                       ! Object End Use Key
  ,                                       ! Quantity {dimensionless}
  45.52,                                  ! Material Cost {$}
  CostPerArea;                            ! Material Cost Units

