
OS:Version,
  {cf74c681-984b-404f-a2a2-813d1bd11acf}, ! Handle
  0.9.3;                                  ! Version Identifier

OS:Construction,
  {d09190ff-025e-49ee-a49b-2c31ef4ba089}, ! Handle
  AEDG SHC Nonres 7A Skylight Glass Skylight with Curb, ! Name
  ,                                       ! Surface Rendering Name
  {880adc77-c481-4d4b-af54-a8cc643adca6}; ! Layer 1

OS:WindowMaterial:Glazing,
  {880adc77-c481-4d4b-af54-a8cc643adca6}, ! Handle
  Theoretical Glass [242],                ! Name
  SpectralAverage,                        ! Optical Data Type
  ,                                       ! Window Glass Spectral Data Set Name
  0.003,                                  ! Thickness {m}
  0.381632,                               ! Solar Transmittance at Normal Incidence
  0.568368,                               ! Front Side Solar Reflectance at Normal Incidence
  0.568368,                               ! Back Side Solar Reflectance at Normal Incidence
  0.549983,                               ! Visible Transmittance at Normal Incidence
  0.400017,                               ! Front Side Visible Reflectance at Normal Incidence
  0.400017,                               ! Back Side Visible Reflectance at Normal Incidence
  0,                                      ! Infrared Transmittance at Normal Incidence
  0.9,                                    ! Front Side Infrared Hemispherical Emissivity
  0.9,                                    ! Back Side Infrared Hemispherical Emissivity
  0.0230964;                              ! Conductivity {W/m-K}

OS:ComponentCost:LineItem,
  {1750c1f3-5e66-4a7b-8a02-793f42edb24c}, ! Handle
  AEDG SHC Nonres 7A Skylight Glass Skylight with Curb, ! Name
  ,                                       ! Type
  Construction,                           ! Line Item Type
  AEDG SHC Nonres 7A Skylight Glass Skylight with Curb, ! Item Name
  ,                                       ! Object End Use Key
  ,                                       ! Quantity {dimensionless}
  0,                                      ! Material Cost {$}
  CostPerArea;                            ! Material Cost Units

OS:ComponentData,
  {d5b95cc6-40e8-45bd-a5a1-6757a796ce2e}, ! Handle
  Component Data 1,                       ! Name
  {31078fe0-9171-42e6-891f-c1313b05b3fa}, ! UUID
  {dc712cd3-7d02-49cb-a75c-4d6c85da953e}, ! Version UUID
  1363981932,                             ! Creation Timestamp
  1363981932,                             ! Version Timestamp
  {d09190ff-025e-49ee-a49b-2c31ef4ba089}, ! Name of Object 1
  {880adc77-c481-4d4b-af54-a8cc643adca6}, ! Name of Object 2
  {1750c1f3-5e66-4a7b-8a02-793f42edb24c}; ! Name of Object 3

