
OS:Version,
  {dba3de26-a00e-4849-958a-60cb51222a0c}, ! Handle
  0.9.3;                                  ! Version Identifier

OS:ComponentCost:LineItem,
  {fbf51d95-1952-4150-93c8-7f343571fa94}, ! Handle
  90.1-2001 Nonres B10 Skylight without Curb, ! Name
  ,                                       ! Type
  Construction,                           ! Line Item Type
  90.1-2001 Nonres B10 Skylight without Curb, ! Item Name
  ,                                       ! Object End Use Key
  ,                                       ! Quantity {dimensionless}
  535.8,                                  ! Material Cost {$}
  CostPerArea;                            ! Material Cost Units

OS:Construction,
  {8f3c8e1e-9d85-4cc7-a6b8-7d6d20427ad5}, ! Handle
  90.1-2001 Nonres B10 Skylight without Curb, ! Name
  ,                                       ! Surface Rendering Name
  {e6686637-e997-4570-9c0e-2b2b8f549dfa}; ! Layer 1

OS:WindowMaterial:Glazing,
  {e6686637-e997-4570-9c0e-2b2b8f549dfa}, ! Handle
  Theoretical Glass [28],                 ! Name
  SpectralAverage,                        ! Optical Data Type
  ,                                       ! Window Glass Spectral Data Set Name
  0.003,                                  ! Thickness {m}
  0.382225,                               ! Solar Transmittance at Normal Incidence
  0.567775,                               ! Front Side Solar Reflectance at Normal Incidence
  0.567775,                               ! Back Side Solar Reflectance at Normal Incidence
  0.41104,                                ! Visible Transmittance at Normal Incidence
  0.53896,                                ! Front Side Visible Reflectance at Normal Incidence
  0.53896,                                ! Back Side Visible Reflectance at Normal Incidence
  0,                                      ! Infrared Transmittance at Normal Incidence
  0.9,                                    ! Front Side Infrared Hemispherical Emissivity
  0.9,                                    ! Back Side Infrared Hemispherical Emissivity
  0.03026;                                ! Conductivity {W/m-K}

