
! 
OS:Version,
  {9c37d538-db0d-4a47-9850-5bede7e76bd5}, !- Handle
  1.13.0;                                 !- Version Identifier


! {"nombreProductoCorto": "STADIP 1010.2 con COOL-LITE ST167", "codigoEAN": "", "handle": "657881df-b729-4a1a-a0d6-06950f4e41f5", "g": 0.63, "tV": 0.69, "u": 5.2, "nombreProducto": "STADIP 1010.2 con COOL-LITE ST167\nU:5.2 W/m2K - g:0.63 - Tv: 0.69"}
OS:WindowMaterial:SimpleGlazingSystem,
  {657881df-b729-4a1a-a0d6-06950f4e41f5}, !- Handle
  STADIP 1010.2 con COOL-LITE ST167, !- Name
  5.2,                                    !- U-Factor {W/m2-K}
  0.63,                                    !- Solar Heat Gain Coefficient
  0.69;                                    !- Visible Transmittance     
  
  
OS:Construction,
  {b6b94ab9-c1cd-481f-9cc0-08fca8e9838c}, !- Handle
  STADIP 1010.2 con COOL-LITE ST167,                         !- Name
  ,                                       !- Surface Rendering Name
  {657881df-b729-4a1a-a0d6-06950f4e41f5}; !- Layer 1  

