
OS:Version,
  {9ad2b1a2-f9db-4f44-a745-1fa7393f9c36}, ! Handle
  0.9.3;                                  ! Version Identifier

OS:Construction,
  {262ce2d5-695e-496b-a0b0-00c7d4a8a54f}, ! Handle
  90.1-1999 Res B2 Roof Metal Building,   ! Name
  ,                                       ! Surface Rendering Name
  {633f54fa-610c-4218-a858-6eb1f1b5c7af}, ! Layer 1
  {d121f052-9678-4d19-bdbf-ce64c0f5330a}; ! Layer 2

OS:Material,
  {633f54fa-610c-4218-a858-6eb1f1b5c7af}, ! Handle
  Metal Roofing,                          ! Name
  MediumSmooth,                           ! Roughness
  0.001524,                               ! Thickness {m}
  45.006,                                 ! Conductivity {W/m-K}
  7680,                                   ! Density {kg/m3}
  418.4,                                  ! Specific Heat {J/kg-K}
  0.9,                                    ! Thermal Absorptance
  0.7,                                    ! Solar Absorptance
  0.3;                                    ! Visible Absorptance

OS:Material,
  {d121f052-9678-4d19-bdbf-ce64c0f5330a}, ! Handle
  Roof Insulation [1],                    ! Name
  MediumRough,                            ! Roughness
  0.123533,                               ! Thickness {m}
  0.049,                                  ! Conductivity {W/m-K}
  265,                                    ! Density {kg/m3}
  836.8,                                  ! Specific Heat {J/kg-K}
  0.9,                                    ! Thermal Absorptance
  0.7,                                    ! Solar Absorptance
  0.7;                                    ! Visible Absorptance

OS:ComponentCost:LineItem,
  {6af93714-97ea-4ffe-8133-842033123cf9}, ! Handle
  90.1-1999 Res B2 Roof Metal Building,   ! Name
  ,                                       ! Type
  Construction,                           ! Line Item Type
  90.1-1999 Res B2 Roof Metal Building,   ! Item Name
  ,                                       ! Object End Use Key
  ,                                       ! Quantity {dimensionless}
  38.206,                                 ! Material Cost {$}
  CostPerArea;                            ! Material Cost Units

