
OS:Version,
  {c3b7401a-1871-4f06-91ff-4b3b0727df03}, ! Handle
  0.9.3;                                  ! Version Identifier

OS:Material,
  {3d6224d5-a119-4f2d-b281-ac7857594ce8}, ! Handle
  Metal Roofing,                          ! Name
  MediumSmooth,                           ! Roughness
  0.001524,                               ! Thickness {m}
  45.006,                                 ! Conductivity {W/m-K}
  7680,                                   ! Density {kg/m3}
  418.4,                                  ! Specific Heat {J/kg-K}
  0.9,                                    ! Thermal Absorptance
  0.7,                                    ! Solar Absorptance
  0.3;                                    ! Visible Absorptance

OS:Construction,
  {bf3c4b4c-ab42-4b0d-8f53-09e280d568d0}, ! Handle
  90.1-2001 Res B3 Roof Metal Building,   ! Name
  ,                                       ! Surface Rendering Name
  {3d6224d5-a119-4f2d-b281-ac7857594ce8}, ! Layer 1
  {5a85177e-0a03-4f9a-907e-d815c5a3eb4c}; ! Layer 2

OS:Material,
  {5a85177e-0a03-4f9a-907e-d815c5a3eb4c}, ! Handle
  Roof Insulation [1],                    ! Name
  MediumRough,                            ! Roughness
  0.123533,                               ! Thickness {m}
  0.049,                                  ! Conductivity {W/m-K}
  265,                                    ! Density {kg/m3}
  836.8,                                  ! Specific Heat {J/kg-K}
  0.9,                                    ! Thermal Absorptance
  0.7,                                    ! Solar Absorptance
  0.7;                                    ! Visible Absorptance

OS:ComponentCost:LineItem,
  {d4be281d-b83a-4050-ab7f-5e3e7434f4cb}, ! Handle
  90.1-2001 Res B3 Roof Metal Building,   ! Name
  ,                                       ! Type
  Construction,                           ! Line Item Type
  90.1-2001 Res B3 Roof Metal Building,   ! Item Name
  ,                                       ! Object End Use Key
  ,                                       ! Quantity {dimensionless}
  38.206,                                 ! Material Cost {$}
  CostPerArea;                            ! Material Cost Units

