
OS:Version,
  {35cde014-2c2b-4185-871a-2f324635e9f2}, !- Handle
  1.1.0;                                  !- Version Identifier

OS:Construction,
  {38b8012d-c305-447d-9aed-c21fbdf4695b}, !- Handle
  Dbl Green 6mm/13mm Air,                 !- Name
  ,                                       !- Surface Rendering Name
  {4a4d6f78-ab57-47df-ab64-49067a1e0cbf}, !- Layer 1
  {55655d0d-c809-4962-8375-48c72b17a922}, !- Layer 2
  {fa7d256c-134f-42e5-943e-652a62038c1c}; !- Layer 3

OS:WindowMaterial:Glazing,
  {4a4d6f78-ab57-47df-ab64-49067a1e0cbf}, !- Handle
  GREEN 6MM,                              !- Name
  SpectralAverage,                        !- Optical Data Type
  ,                                       !- Window Glass Spectral Data Set Name
  0.006,                                  !- Thickness {m}
  0.487,                                  !- Solar Transmittance at Normal Incidence
  0.056,                                  !- Front Side Solar Reflectance at Normal Incidence
  0.056,                                  !- Back Side Solar Reflectance at Normal Incidence
  0.749,                                  !- Visible Transmittance at Normal Incidence
  0.07,                                   !- Front Side Visible Reflectance at Normal Incidence
  0.07,                                   !- Back Side Visible Reflectance at Normal Incidence
  0,                                      !- Infrared Transmittance at Normal Incidence
  0.84,                                   !- Front Side Infrared Hemispherical Emissivity
  0.84,                                   !- Back Side Infrared Hemispherical Emissivity
  0.9;                                    !- Conductivity {W/m-K}

OS:WindowMaterial:Gas,
  {55655d0d-c809-4962-8375-48c72b17a922}, !- Handle
  AIR 13MM,                               !- Name
  Air,                                    !- Gas Type
  0.0127;                                 !- Thickness {m}

OS:WindowMaterial:Glazing,
  {fa7d256c-134f-42e5-943e-652a62038c1c}, !- Handle
  CLEAR 6MM,                              !- Name
  SpectralAverage,                        !- Optical Data Type
  ,                                       !- Window Glass Spectral Data Set Name
  0.006,                                  !- Thickness {m}
  0.775,                                  !- Solar Transmittance at Normal Incidence
  0.071,                                  !- Front Side Solar Reflectance at Normal Incidence
  0.071,                                  !- Back Side Solar Reflectance at Normal Incidence
  0.881,                                  !- Visible Transmittance at Normal Incidence
  0.08,                                   !- Front Side Visible Reflectance at Normal Incidence
  0.08,                                   !- Back Side Visible Reflectance at Normal Incidence
  0,                                      !- Infrared Transmittance at Normal Incidence
  0.84,                                   !- Front Side Infrared Hemispherical Emissivity
  0.84,                                   !- Back Side Infrared Hemispherical Emissivity
  0.9;                                    !- Conductivity {W/m-K}

