
OS:Version,
  {56a41965-e5cc-4282-a7d3-5d438dda70a8}, !- Handle
  1.1.0;                                  !- Version Identifier

OS:Construction,
  {de165ba4-1082-4d7c-ba15-fb55fb689447}, !- Handle
  Dbl Green 6mm/13mm Air,                 !- Name
  ,                                       !- Surface Rendering Name
  {ae16d367-999c-48af-920f-cf32a1e194f5}, !- Layer 1
  {9e02ec97-07f4-40a6-9cb3-973ad37e37b3}, !- Layer 2
  {12ba1d6c-3e3c-437a-a38e-867bb636a46e}; !- Layer 3

OS:WindowMaterial:Glazing,
  {ae16d367-999c-48af-920f-cf32a1e194f5}, !- Handle
  GREEN 6MM,                              !- Name
  SpectralAverage,                        !- Optical Data Type
  ,                                       !- Window Glass Spectral Data Set Name
  0.006,                                  !- Thickness {m}
  0.487,                                  !- Solar Transmittance at Normal Incidence
  0.056,                                  !- Front Side Solar Reflectance at Normal Incidence
  0.056,                                  !- Back Side Solar Reflectance at Normal Incidence
  0.749,                                  !- Visible Transmittance at Normal Incidence
  0.07,                                   !- Front Side Visible Reflectance at Normal Incidence
  0.07,                                   !- Back Side Visible Reflectance at Normal Incidence
  0,                                      !- Infrared Transmittance at Normal Incidence
  0.84,                                   !- Front Side Infrared Hemispherical Emissivity
  0.84,                                   !- Back Side Infrared Hemispherical Emissivity
  0.9;                                    !- Conductivity {W/m-K}

OS:WindowMaterial:Gas,
  {9e02ec97-07f4-40a6-9cb3-973ad37e37b3}, !- Handle
  AIR 13MM,                               !- Name
  Air,                                    !- Gas Type
  0.0127;                                 !- Thickness {m}

OS:WindowMaterial:Glazing,
  {12ba1d6c-3e3c-437a-a38e-867bb636a46e}, !- Handle
  CLEAR 6MM,                              !- Name
  SpectralAverage,                        !- Optical Data Type
  ,                                       !- Window Glass Spectral Data Set Name
  0.006,                                  !- Thickness {m}
  0.775,                                  !- Solar Transmittance at Normal Incidence
  0.071,                                  !- Front Side Solar Reflectance at Normal Incidence
  0.071,                                  !- Back Side Solar Reflectance at Normal Incidence
  0.881,                                  !- Visible Transmittance at Normal Incidence
  0.08,                                   !- Front Side Visible Reflectance at Normal Incidence
  0.08,                                   !- Back Side Visible Reflectance at Normal Incidence
  0,                                      !- Infrared Transmittance at Normal Incidence
  0.84,                                   !- Front Side Infrared Hemispherical Emissivity
  0.84,                                   !- Back Side Infrared Hemispherical Emissivity
  0.9;                                    !- Conductivity {W/m-K}

OS:ComponentData,
  {e09a707c-2a3a-4510-8cb1-6b3881711281}, !- Handle
  Component Data 1,                       !- Name
  {4e0cbf49-b258-4754-8b5c-946ceca483e5}, !- UUID
  {787668e1-7e35-4938-8572-14823445c4e0}, !- Version UUID
  1384380190,                             !- Creation Timestamp
  1384380190,                             !- Version Timestamp
  {de165ba4-1082-4d7c-ba15-fb55fb689447}, !- Name of Object 1
  {ae16d367-999c-48af-920f-cf32a1e194f5}, !- Name of Object 2
  {9e02ec97-07f4-40a6-9cb3-973ad37e37b3}, !- Name of Object 3
  {12ba1d6c-3e3c-437a-a38e-867bb636a46e}; !- Name of Object 4

