
OS:Version,
  {af002da0-c614-42c1-9bcd-1b130ed189a2}, ! Handle
  0.9.3;                                  ! Version Identifier

OS:ComponentCost:LineItem,
  {a4c20d02-4d19-4c16-817b-714b3aeaf0ae}, ! Handle
  90.1-2007 Nonres 1A Ext Wall Wood-Framed and Other, ! Name
  ,                                       ! Type
  Construction,                           ! Line Item Type
  90.1-2007 Nonres 1A Ext Wall Wood-Framed and Other, ! Item Name
  ,                                       ! Object End Use Key
  ,                                       ! Quantity {dimensionless}
  73.056,                                 ! Material Cost {$}
  CostPerArea;                            ! Material Cost Units

OS:Construction,
  {89ec2f3d-00f1-42f6-a243-f86150cf56ae}, ! Handle
  90.1-2007 Nonres 1A Ext Wall Wood-Framed and Other, ! Name
  ,                                       ! Surface Rendering Name
  {3f7f5559-ff98-49d2-8984-8cea9fef2f8a}, ! Layer 1
  {2ad07232-d023-4dec-8f56-02c1e4468e29}, ! Layer 2
  {31172970-57a6-4990-b201-d4442bf6a9a6}; ! Layer 3

OS:Material,
  {3f7f5559-ff98-49d2-8984-8cea9fef2f8a}, ! Handle
  Wood Siding,                            ! Name
  MediumSmooth,                           ! Roughness
  0.01,                                   ! Thickness {m}
  0.11,                                   ! Conductivity {W/m-K}
  544.62,                                 ! Density {kg/m3}
  1210,                                   ! Specific Heat {J/kg-K}
  0.9,                                    ! Thermal Absorptance
  0.78,                                   ! Solar Absorptance
  0.78;                                   ! Visible Absorptance

OS:Material,
  {2ad07232-d023-4dec-8f56-02c1e4468e29}, ! Handle
  Wall Insulation [2],                    ! Name
  MediumRough,                            ! Roughness
  0.0746874,                              ! Thickness {m}
  0.045,                                  ! Conductivity {W/m-K}
  265,                                    ! Density {kg/m3}
  836.8,                                  ! Specific Heat {J/kg-K}
  0.9,                                    ! Thermal Absorptance
  0.7,                                    ! Solar Absorptance
  0.7;                                    ! Visible Absorptance

OS:Material,
  {31172970-57a6-4990-b201-d4442bf6a9a6}, ! Handle
  1/2IN Gypsum,                           ! Name
  Smooth,                                 ! Roughness
  0.01271,                                ! Thickness {m}
  0.16,                                   ! Conductivity {W/m-K}
  784.9,                                  ! Density {kg/m3}
  830,                                    ! Specific Heat {J/kg-K}
  0.9,                                    ! Thermal Absorptance
  0.92,                                   ! Solar Absorptance
  0.92;                                   ! Visible Absorptance

