
OS:Version,
  {354db3e1-1215-470e-9ae0-6693a1925975}, ! Handle
  0.9.3;                                  ! Version Identifier

OS:Material,
  {afecfa3c-f6f2-4895-a599-67ecf3ca655b}, ! Handle
  8IN Concrete HW,                        ! Name
  MediumRough,                            ! Roughness
  0.2033,                                 ! Thickness {m}
  1.7296,                                 ! Conductivity {W/m-K}
  2243,                                   ! Density {kg/m3}
  837,                                    ! Specific Heat {J/kg-K}
  0.9,                                    ! Thermal Absorptance
  0.65,                                   ! Solar Absorptance
  0.65;                                   ! Visible Absorptance

OS:Construction,
  {92eee39b-ce4d-4518-b97b-88aed8affb56}, ! Handle
  90.1-2001 Res B18 Ext Wall Mass,        ! Name
  ,                                       ! Surface Rendering Name
  {cdc2fcfb-06b6-44be-a9a3-769b8d5ef2ef}, ! Layer 1
  {afecfa3c-f6f2-4895-a599-67ecf3ca655b}, ! Layer 2
  {6a4f5de5-bcb2-4b65-b73f-187ccbd0cd12}, ! Layer 3
  {0b9eb779-bc7c-4efc-bbb3-c89fe3ea3390}; ! Layer 4

OS:Material,
  {cdc2fcfb-06b6-44be-a9a3-769b8d5ef2ef}, ! Handle
  1IN Stucco,                             ! Name
  Smooth,                                 ! Roughness
  0.0253,                                 ! Thickness {m}
  0.6918,                                 ! Conductivity {W/m-K}
  1858,                                   ! Density {kg/m3}
  837,                                    ! Specific Heat {J/kg-K}
  0.9,                                    ! Thermal Absorptance
  0.92,                                   ! Solar Absorptance
  0.92;                                   ! Visible Absorptance

OS:Material,
  {6a4f5de5-bcb2-4b65-b73f-187ccbd0cd12}, ! Handle
  Wall Insulation [8],                    ! Name
  MediumRough,                            ! Roughness
  0.067929,                               ! Thickness {m}
  0.0432,                                 ! Conductivity {W/m-K}
  91,                                     ! Density {kg/m3}
  837,                                    ! Specific Heat {J/kg-K}
  0.9,                                    ! Thermal Absorptance
  0.5,                                    ! Solar Absorptance
  0.5;                                    ! Visible Absorptance

OS:Material,
  {0b9eb779-bc7c-4efc-bbb3-c89fe3ea3390}, ! Handle
  1/2IN Gypsum,                           ! Name
  Smooth,                                 ! Roughness
  0.01271,                                ! Thickness {m}
  0.16,                                   ! Conductivity {W/m-K}
  784.9,                                  ! Density {kg/m3}
  830,                                    ! Specific Heat {J/kg-K}
  0.9,                                    ! Thermal Absorptance
  0.92,                                   ! Solar Absorptance
  0.92;                                   ! Visible Absorptance

OS:ComponentCost:LineItem,
  {79a83ca1-9be0-4a22-8f16-b6f06d3001fe}, ! Handle
  90.1-2001 Res B18 Ext Wall Mass,        ! Name
  ,                                       ! Type
  Construction,                           ! Line Item Type
  90.1-2001 Res B18 Ext Wall Mass,        ! Item Name
  ,                                       ! Object End Use Key
  ,                                       ! Quantity {dimensionless}
  65.826,                                 ! Material Cost {$}
  CostPerArea;                            ! Material Cost Units

