
OS:Version,
  {33777d4c-7c1c-463f-b957-d7e14f7576de}, ! Handle
  0.9.3;                                  ! Version Identifier

OS:Construction,
  {3d17f055-b998-4373-be23-5157f72d48de}, ! Handle
  Title 24-2008 Nonres 7 Roof Attic and Other, ! Name
  ,                                       ! Surface Rendering Name
  {e41e77d0-999d-4c40-a0fb-602498662755}, ! Layer 1
  {d0ce1c06-a843-4bc2-a497-25e7c4fe2d3c}, ! Layer 2
  {064a64eb-5b5a-4c38-8b34-36583caecd4f}, ! Layer 3
  {54906905-ebaa-406b-a07c-6dda0633516d}; ! Layer 4

OS:Material,
  {e41e77d0-999d-4c40-a0fb-602498662755}, ! Handle
  Wood Shingles [1],                      ! Name
  VeryRough,                              ! Roughness
  0.0178,                                 ! Thickness {m}
  0.115,                                  ! Conductivity {W/m-K}
  513,                                    ! Density {kg/m3}
  1255,                                   ! Specific Heat {J/kg-K}
  0.9,                                    ! Thermal Absorptance
  0.78,                                   ! Solar Absorptance
  0.85;                                   ! Visible Absorptance

OS:Material,
  {d0ce1c06-a843-4bc2-a497-25e7c4fe2d3c}, ! Handle
  1IN Wood Decking,                       ! Name
  MediumSmooth,                           ! Roughness
  0.0254,                                 ! Thickness {m}
  0.1211,                                 ! Conductivity {W/m-K}
  593,                                    ! Density {kg/m3}
  2510,                                   ! Specific Heat {J/kg-K}
  0.9,                                    ! Thermal Absorptance
  0.78,                                   ! Solar Absorptance
  0.78;                                   ! Visible Absorptance

OS:Material,
  {064a64eb-5b5a-4c38-8b34-36583caecd4f}, ! Handle
  Roof Insulation [109],                  ! Name
  MediumRough,                            ! Roughness
  0.0980967,                              ! Thickness {m}
  0.049,                                  ! Conductivity {W/m-K}
  265,                                    ! Density {kg/m3}
  836.8,                                  ! Specific Heat {J/kg-K}
  0.9,                                    ! Thermal Absorptance
  0.7,                                    ! Solar Absorptance
  0.7;                                    ! Visible Absorptance

OS:Material,
  {54906905-ebaa-406b-a07c-6dda0633516d}, ! Handle
  1/2IN Gypsum,                           ! Name
  Smooth,                                 ! Roughness
  0.01271,                                ! Thickness {m}
  0.16,                                   ! Conductivity {W/m-K}
  784.9,                                  ! Density {kg/m3}
  830,                                    ! Specific Heat {J/kg-K}
  0.9,                                    ! Thermal Absorptance
  0.92,                                   ! Solar Absorptance
  0.92;                                   ! Visible Absorptance

OS:ComponentCost:LineItem,
  {69a4fe47-5569-46fb-901c-d2367e751719}, ! Handle
  Title 24-2008 Nonres 7 Roof Attic and Other, ! Name
  ,                                       ! Type
  Construction,                           ! Line Item Type
  Title 24-2008 Nonres 7 Roof Attic and Other, ! Item Name
  ,                                       ! Object End Use Key
  ,                                       ! Quantity {dimensionless}
  31.527,                                 ! Material Cost {$}
  CostPerArea;                            ! Material Cost Units

