
! 
OS:Version,
  {9c37d538-db0d-4a47-9850-5bede7e76bd5}, !- Handle
  1.13.0;                                 !- Version Identifier


! {"nombreProductoCorto": "CLIMALIT PLUS con COOL LITE ST 050 F2 6 (16 argon90%) 44.2 DIAMANT", "codigoEAN": "", "handle": "d516084c-0d5d-4757-a06e-faf05898f337", "g": 0.48, "tV": 0.47, "u": 2.5, "nombreProducto": "CLIMALIT PLUS con COOL LITE ST 050 F2 6 (16 argon90%) 44.2 DIAMANT\nU:2.5 W/m2K - g:0.48 - Tv: 0.47"}
OS:WindowMaterial:SimpleGlazingSystem,
  {d516084c-0d5d-4757-a06e-faf05898f337}, !- Handle
  CLIMALIT PLUS con COOL LITE ST 050 F2 6 (16 argon90%) 44.2 DIAMANT, !- Name
  2.5,                                    !- U-Factor {W/m2-K}
  0.48,                                    !- Solar Heat Gain Coefficient
  0.47;                                    !- Visible Transmittance     
  
  
OS:Construction,
  {6a064c8f-4287-425f-be58-af3915f2dc0a}, !- Handle
  CLIMALIT PLUS con COOL LITE ST 050 F2 6 (16 argon90%) 44.2 DIAMANT,                         !- Name
  ,                                       !- Surface Rendering Name
  {d516084c-0d5d-4757-a06e-faf05898f337}; !- Layer 1  

