
OS:Version,
  {a0594da5-4b8e-4e1c-843f-3f740722c0d3}, ! Handle
  0.9.3;                                  ! Version Identifier

OS:Construction,
  {8db6d314-250c-420d-b186-0aabe7ed639c}, ! Handle
  AEDG K12 Nonres 8A Skylight without Curb, ! Name
  ,                                       ! Surface Rendering Name
  {d3348fd3-2a83-4bf9-8c1a-a46682e92b51}; ! Layer 1

OS:WindowMaterial:Glazing,
  {d3348fd3-2a83-4bf9-8c1a-a46682e92b51}, ! Handle
  Theoretical Glass [261],                ! Name
  SpectralAverage,                        ! Optical Data Type
  ,                                       ! Window Glass Spectral Data Set Name
  0.003,                                  ! Thickness {m}
  0.471791,                               ! Solar Transmittance at Normal Incidence
  0.478209,                               ! Front Side Solar Reflectance at Normal Incidence
  0.478209,                               ! Back Side Solar Reflectance at Normal Incidence
  0.489393,                               ! Visible Transmittance at Normal Incidence
  0.460607,                               ! Front Side Visible Reflectance at Normal Incidence
  0.460607,                               ! Back Side Visible Reflectance at Normal Incidence
  0,                                      ! Infrared Transmittance at Normal Incidence
  0.9,                                    ! Front Side Infrared Hemispherical Emissivity
  0.9,                                    ! Back Side Infrared Hemispherical Emissivity
  0.0214562;                              ! Conductivity {W/m-K}

