
OS:Version,
  {ddfde732-993d-40f8-a45c-2e890fa274db}, ! Handle
  0.9.3;                                  ! Version Identifier

OS:Construction,
  {46ae6789-dcd4-41cc-b016-f2986560df59}, ! Handle
  90.1 Windows Window Fixed 2546 Vnl-HptMpr-Std-ClrSue, ! Name
  ,                                       ! Surface Rendering Name
  {d3c782f6-5661-4cec-8d0e-d74bc8dbf776}; ! Layer 1

OS:WindowMaterial:Glazing,
  {d3c782f6-5661-4cec-8d0e-d74bc8dbf776}, ! Handle
  Theoretical Glass [556],                ! Name
  SpectralAverage,                        ! Optical Data Type
  ,                                       ! Window Glass Spectral Data Set Name
  0.003,                                  ! Thickness {m}
  0.156622,                               ! Solar Transmittance at Normal Incidence
  0.793378,                               ! Front Side Solar Reflectance at Normal Incidence
  0.793378,                               ! Back Side Solar Reflectance at Normal Incidence
  0.291385,                               ! Visible Transmittance at Normal Incidence
  0.658615,                               ! Front Side Visible Reflectance at Normal Incidence
  0.658615,                               ! Back Side Visible Reflectance at Normal Incidence
  0,                                      ! Infrared Transmittance at Normal Incidence
  0.9,                                    ! Front Side Infrared Hemispherical Emissivity
  0.9,                                    ! Back Side Infrared Hemispherical Emissivity
  0.00919137;                             ! Conductivity {W/m-K}

OS:ComponentCost:LineItem,
  {3b15e596-84ba-4313-b349-4ca6511bdbc9}, ! Handle
  90.1 Windows Window Fixed 2546 Vnl-HptMpr-Std-ClrSue, ! Name
  ,                                       ! Type
  Construction,                           ! Line Item Type
  90.1 Windows Window Fixed 2546 Vnl-HptMpr-Std-ClrSue, ! Item Name
  ,                                       ! Object End Use Key
  ,                                       ! Quantity {dimensionless}
  0,                                      ! Material Cost {$}
  CostPerArea;                            ! Material Cost Units

