
OS:Version,
  {54e38813-fc01-40f5-bfca-a6b2c8e00be2}, ! Handle
  0.9.3;                                  ! Version Identifier

OS:Construction,
  {f21b9fc0-0889-4d8f-8ed3-18c4ba118279}, ! Handle
  90.1-2007 Nonres 3A Ext Wall Mass,      ! Name
  ,                                       ! Surface Rendering Name
  {91c139b4-a773-4c74-8fc4-9ab15b6bf2f7}, ! Layer 1
  {74c981b3-26a1-4504-90b7-12ef06542654}, ! Layer 2
  {0cf38cb3-e356-4ca9-a653-3ff70fd89c46}, ! Layer 3
  {ffd5da74-e06d-4ea0-b059-715e80ca9bf5}; ! Layer 4

OS:Material,
  {91c139b4-a773-4c74-8fc4-9ab15b6bf2f7}, ! Handle
  1IN Stucco,                             ! Name
  Smooth,                                 ! Roughness
  0.0253,                                 ! Thickness {m}
  0.6918,                                 ! Conductivity {W/m-K}
  1858,                                   ! Density {kg/m3}
  837,                                    ! Specific Heat {J/kg-K}
  0.9,                                    ! Thermal Absorptance
  0.92,                                   ! Solar Absorptance
  0.92;                                   ! Visible Absorptance

OS:Material,
  {74c981b3-26a1-4504-90b7-12ef06542654}, ! Handle
  8IN Concrete HW,                        ! Name
  MediumRough,                            ! Roughness
  0.2033,                                 ! Thickness {m}
  1.7296,                                 ! Conductivity {W/m-K}
  2243,                                   ! Density {kg/m3}
  837,                                    ! Specific Heat {J/kg-K}
  0.9,                                    ! Thermal Absorptance
  0.65,                                   ! Solar Absorptance
  0.65;                                   ! Visible Absorptance

OS:Material,
  {0cf38cb3-e356-4ca9-a653-3ff70fd89c46}, ! Handle
  Wall Insulation [5],                    ! Name
  MediumRough,                            ! Roughness
  0.0453274,                              ! Thickness {m}
  0.0432,                                 ! Conductivity {W/m-K}
  91,                                     ! Density {kg/m3}
  837,                                    ! Specific Heat {J/kg-K}
  0.9,                                    ! Thermal Absorptance
  0.5,                                    ! Solar Absorptance
  0.5;                                    ! Visible Absorptance

OS:Material,
  {ffd5da74-e06d-4ea0-b059-715e80ca9bf5}, ! Handle
  1/2IN Gypsum,                           ! Name
  Smooth,                                 ! Roughness
  0.01271,                                ! Thickness {m}
  0.16,                                   ! Conductivity {W/m-K}
  784.9,                                  ! Density {kg/m3}
  830,                                    ! Specific Heat {J/kg-K}
  0.9,                                    ! Thermal Absorptance
  0.92,                                   ! Solar Absorptance
  0.92;                                   ! Visible Absorptance

OS:ComponentCost:LineItem,
  {9a6c3c3d-7603-499f-9e7b-f95f4d2557e8}, ! Handle
  90.1-2007 Nonres 3A Ext Wall Mass,      ! Name
  ,                                       ! Type
  Construction,                           ! Line Item Type
  90.1-2007 Nonres 3A Ext Wall Mass,      ! Item Name
  ,                                       ! Object End Use Key
  ,                                       ! Quantity {dimensionless}
  61.418,                                 ! Material Cost {$}
  CostPerArea;                            ! Material Cost Units

OS:ComponentData,
  {bc3c61c1-c951-4aff-9518-3e515349bf02}, ! Handle
  Component Data 1,                       ! Name
  {91aec7f8-bdd5-42f6-97ff-513d8da7a952}, ! UUID
  {2cecd667-82db-46c1-96d4-a6a8aa473792}, ! Version UUID
  1363981794,                             ! Creation Timestamp
  1363981794,                             ! Version Timestamp
  {f21b9fc0-0889-4d8f-8ed3-18c4ba118279}, ! Name of Object 1
  {91c139b4-a773-4c74-8fc4-9ab15b6bf2f7}, ! Name of Object 2
  {74c981b3-26a1-4504-90b7-12ef06542654}, ! Name of Object 3
  {0cf38cb3-e356-4ca9-a653-3ff70fd89c46}, ! Name of Object 4
  {ffd5da74-e06d-4ea0-b059-715e80ca9bf5}, ! Name of Object 5
  {9a6c3c3d-7603-499f-9e7b-f95f4d2557e8}; ! Name of Object 6

