
OS:Version,
  {d4a47d4b-cc80-4563-b227-62a5b8a8e877}, ! Handle
  0.9.3;                                  ! Version Identifier

OS:Construction,
  {cab789d1-1d00-4613-96b2-a1850c4a999a}, ! Handle
  90.1-2007 Nonres 3A Ext Wall Mass,      ! Name
  ,                                       ! Surface Rendering Name
  {41f37ebf-47fb-46c5-81b7-d6bfac20897d}, ! Layer 1
  {6448187c-a082-4dfa-93ce-e1e678ea84f1}, ! Layer 2
  {735831de-53b9-4cfd-8f70-af3c477d1406}, ! Layer 3
  {b9dbc6ad-d3e6-4600-bc73-fce244e90b94}; ! Layer 4

OS:Material,
  {41f37ebf-47fb-46c5-81b7-d6bfac20897d}, ! Handle
  1IN Stucco,                             ! Name
  Smooth,                                 ! Roughness
  0.0253,                                 ! Thickness {m}
  0.6918,                                 ! Conductivity {W/m-K}
  1858,                                   ! Density {kg/m3}
  837,                                    ! Specific Heat {J/kg-K}
  0.9,                                    ! Thermal Absorptance
  0.92,                                   ! Solar Absorptance
  0.92;                                   ! Visible Absorptance

OS:Material,
  {6448187c-a082-4dfa-93ce-e1e678ea84f1}, ! Handle
  8IN Concrete HW,                        ! Name
  MediumRough,                            ! Roughness
  0.2033,                                 ! Thickness {m}
  1.7296,                                 ! Conductivity {W/m-K}
  2243,                                   ! Density {kg/m3}
  837,                                    ! Specific Heat {J/kg-K}
  0.9,                                    ! Thermal Absorptance
  0.65,                                   ! Solar Absorptance
  0.65;                                   ! Visible Absorptance

OS:Material,
  {735831de-53b9-4cfd-8f70-af3c477d1406}, ! Handle
  Wall Insulation [5],                    ! Name
  MediumRough,                            ! Roughness
  0.0453274,                              ! Thickness {m}
  0.0432,                                 ! Conductivity {W/m-K}
  91,                                     ! Density {kg/m3}
  837,                                    ! Specific Heat {J/kg-K}
  0.9,                                    ! Thermal Absorptance
  0.5,                                    ! Solar Absorptance
  0.5;                                    ! Visible Absorptance

OS:Material,
  {b9dbc6ad-d3e6-4600-bc73-fce244e90b94}, ! Handle
  1/2IN Gypsum,                           ! Name
  Smooth,                                 ! Roughness
  0.01271,                                ! Thickness {m}
  0.16,                                   ! Conductivity {W/m-K}
  784.9,                                  ! Density {kg/m3}
  830,                                    ! Specific Heat {J/kg-K}
  0.9,                                    ! Thermal Absorptance
  0.92,                                   ! Solar Absorptance
  0.92;                                   ! Visible Absorptance

OS:ComponentCost:LineItem,
  {d69d0340-e346-43e3-aca2-e6834520eb33}, ! Handle
  90.1-2007 Nonres 3A Ext Wall Mass,      ! Name
  ,                                       ! Type
  Construction,                           ! Line Item Type
  90.1-2007 Nonres 3A Ext Wall Mass,      ! Item Name
  ,                                       ! Object End Use Key
  ,                                       ! Quantity {dimensionless}
  61.418,                                 ! Material Cost {$}
  CostPerArea;                            ! Material Cost Units

