
OS:Version,
  {ffd439f2-8676-4bb4-831c-5f2f0f0d2b0a}, ! Handle
  0.9.3;                                  ! Version Identifier

OS:Material,
  {dcd816fa-858e-42b5-b8b7-8fd71c199aa5}, ! Handle
  MAT-CC05 4 HW CONCRETE,                 ! Name
  Rough,                                  ! Roughness
  0.1016,                                 ! Thickness {m}
  1.311,                                  ! Conductivity {W/m-K}
  2240,                                   ! Density {kg/m3}
  836.8,                                  ! Specific Heat {J/kg-K}
  0.9,                                    ! Thermal Absorptance
  0.7,                                    ! Solar Absorptance
  0.7;                                    ! Visible Absorptance

OS:Construction,
  {9ab8e0de-c6a4-4fa9-b65b-94b87c35f1a2}, ! Handle
  90.1-2007 Nonres 2A Ext Slab Unheated - 4in Slab without Carpet, ! Name
  ,                                       ! Surface Rendering Name
  {dcd816fa-858e-42b5-b8b7-8fd71c199aa5}; ! Layer 1

OS:ComponentCost:LineItem,
  {80b4d2a3-2e2e-43e3-bbb3-5ec1829a4b8f}, ! Handle
  90.1-2007 Nonres 2A Ext Slab Unheated - 4in Slab without Carpet, ! Name
  ,                                       ! Type
  Construction,                           ! Line Item Type
  90.1-2007 Nonres 2A Ext Slab Unheated - 4in Slab without Carpet, ! Item Name
  ,                                       ! Object End Use Key
  ,                                       ! Quantity {dimensionless}
  45.52,                                  ! Material Cost {$}
  CostPerArea;                            ! Material Cost Units

