
OS:Version,
  {7831c8b6-b815-4bb4-af67-4dd8107a7bda}, ! Handle
  0.9.3;                                  ! Version Identifier

OS:ComponentCost:LineItem,
  {36211007-905f-44ad-8416-fc8023d64ba0}, ! Handle
  Title 24-2008 Nonres 1 Ext Wall Metal Building, ! Name
  ,                                       ! Type
  Construction,                           ! Line Item Type
  Title 24-2008 Nonres 1 Ext Wall Metal Building, ! Item Name
  ,                                       ! Object End Use Key
  ,                                       ! Quantity {dimensionless}
  184.211,                                ! Material Cost {$}
  CostPerArea;                            ! Material Cost Units

OS:Construction,
  {f0efb01c-07bb-4ac7-a2ab-ca3e7b5c380e}, ! Handle
  Title 24-2008 Nonres 1 Ext Wall Metal Building, ! Name
  ,                                       ! Surface Rendering Name
  {98c69632-ff8b-4712-ba41-6ccb7fcd0a07}, ! Layer 1
  {e2ed35b4-8e30-479e-bbe7-63b11cf4696e}, ! Layer 2
  {d3e4c4dc-2a90-4366-8e1c-15385b48d56b}; ! Layer 3

OS:Material,
  {98c69632-ff8b-4712-ba41-6ccb7fcd0a07}, ! Handle
  Metal Siding,                           ! Name
  Smooth,                                 ! Roughness
  0.0015,                                 ! Thickness {m}
  44.96,                                  ! Conductivity {W/m-K}
  7688.86,                                ! Density {kg/m3}
  410,                                    ! Specific Heat {J/kg-K}
  0.9,                                    ! Thermal Absorptance
  0.2,                                    ! Solar Absorptance
  0.2;                                    ! Visible Absorptance

OS:Material,
  {e2ed35b4-8e30-479e-bbe7-63b11cf4696e}, ! Handle
  Wall Insulation [159],                  ! Name
  MediumRough,                            ! Roughness
  0.0812,                                 ! Thickness {m}
  0.045,                                  ! Conductivity {W/m-K}
  265,                                    ! Density {kg/m3}
  836.8,                                  ! Specific Heat {J/kg-K}
  0.9,                                    ! Thermal Absorptance
  0.7,                                    ! Solar Absorptance
  0.7;                                    ! Visible Absorptance

OS:Material,
  {d3e4c4dc-2a90-4366-8e1c-15385b48d56b}, ! Handle
  1/2IN Gypsum,                           ! Name
  Smooth,                                 ! Roughness
  0.01271,                                ! Thickness {m}
  0.16,                                   ! Conductivity {W/m-K}
  784.9,                                  ! Density {kg/m3}
  830,                                    ! Specific Heat {J/kg-K}
  0.9,                                    ! Thermal Absorptance
  0.92,                                   ! Solar Absorptance
  0.92;                                   ! Visible Absorptance

