
OS:Version,
  {ba41917f-5bdf-4568-9975-212c53c4c7b4}, ! Handle
  0.9.3;                                  ! Version Identifier

OS:Material,
  {642d2c3a-7205-4de9-8904-de49a97183d7}, ! Handle
  MAT-CC05 8 HW CONCRETE,                 ! Name
  Rough,                                  ! Roughness
  0.20321,                                ! Thickness {m}
  1.311,                                  ! Conductivity {W/m-K}
  2240,                                   ! Density {kg/m3}
  836.8,                                  ! Specific Heat {J/kg-K}
  0.9,                                    ! Thermal Absorptance
  0.7,                                    ! Solar Absorptance
  0.7;                                    ! Visible Absorptance

OS:ComponentCost:LineItem,
  {7fe6f002-d39c-4657-98c8-0290ea8c68af}, ! Handle
  90.1-2004 Res 3C Ext Slab Unheated - 8in Slab without Carpet, ! Name
  ,                                       ! Type
  Construction,                           ! Line Item Type
  90.1-2004 Res 3C Ext Slab Unheated - 8in Slab without Carpet, ! Item Name
  ,                                       ! Object End Use Key
  ,                                       ! Quantity {dimensionless}
  45.52,                                  ! Material Cost {$}
  CostPerArea;                            ! Material Cost Units

OS:Construction,
  {e7bef113-9fe4-4b69-9ec0-925b4edf48e1}, ! Handle
  90.1-2004 Res 3C Ext Slab Unheated - 8in Slab without Carpet, ! Name
  ,                                       ! Surface Rendering Name
  {642d2c3a-7205-4de9-8904-de49a97183d7}; ! Layer 1

