
OS:Version,
  {2b9b0080-bbf7-42f7-81e6-c21b7dcb7a46}, ! Handle
  0.9.3;                                  ! Version Identifier

OS:ComponentCost:LineItem,
  {14626a47-f73c-4d61-8bf1-131cc9ca7c10}, ! Handle
  90.1-2001 Res B10 Skylight without Curb, ! Name
  ,                                       ! Type
  Construction,                           ! Line Item Type
  90.1-2001 Res B10 Skylight without Curb, ! Item Name
  ,                                       ! Object End Use Key
  ,                                       ! Quantity {dimensionless}
  535.8,                                  ! Material Cost {$}
  CostPerArea;                            ! Material Cost Units

OS:Construction,
  {78779092-d597-49d5-9e89-56c48f768556}, ! Handle
  90.1-2001 Res B10 Skylight without Curb, ! Name
  ,                                       ! Surface Rendering Name
  {91dd4d52-ab33-4ccf-8aa6-ddcd7c2aa21c}; ! Layer 1

OS:WindowMaterial:Glazing,
  {91dd4d52-ab33-4ccf-8aa6-ddcd7c2aa21c}, ! Handle
  Theoretical Glass [84],                 ! Name
  SpectralAverage,                        ! Optical Data Type
  ,                                       ! Window Glass Spectral Data Set Name
  0.003,                                  ! Thickness {m}
  0.37308,                                ! Solar Transmittance at Normal Incidence
  0.57692,                                ! Front Side Solar Reflectance at Normal Incidence
  0.57692,                                ! Back Side Solar Reflectance at Normal Incidence
  0.41104,                                ! Visible Transmittance at Normal Incidence
  0.53896,                                ! Front Side Visible Reflectance at Normal Incidence
  0.53896,                                ! Back Side Visible Reflectance at Normal Incidence
  0,                                      ! Infrared Transmittance at Normal Incidence
  0.9,                                    ! Front Side Infrared Hemispherical Emissivity
  0.9,                                    ! Back Side Infrared Hemispherical Emissivity
  0.0324872;                              ! Conductivity {W/m-K}

