
OS:Version,
  {abca6f53-42f0-42fc-97e8-8fb2d94bad43}, ! Handle
  0.9.3;                                  ! Version Identifier

OS:Material,
  {e19e15ae-0c62-403e-9de5-e72a745648cb}, ! Handle
  Wall Insulation [2],                    ! Name
  MediumRough,                            ! Roughness
  0.0746874,                              ! Thickness {m}
  0.045,                                  ! Conductivity {W/m-K}
  265,                                    ! Density {kg/m3}
  836.8,                                  ! Specific Heat {J/kg-K}
  0.9,                                    ! Thermal Absorptance
  0.7,                                    ! Solar Absorptance
  0.7;                                    ! Visible Absorptance

OS:Material,
  {63b86b66-3654-4d0d-b742-443418952f2e}, ! Handle
  Wood Siding,                            ! Name
  MediumSmooth,                           ! Roughness
  0.01,                                   ! Thickness {m}
  0.11,                                   ! Conductivity {W/m-K}
  544.62,                                 ! Density {kg/m3}
  1210,                                   ! Specific Heat {J/kg-K}
  0.9,                                    ! Thermal Absorptance
  0.78,                                   ! Solar Absorptance
  0.78;                                   ! Visible Absorptance

OS:Material,
  {bf368877-38ea-4ad3-b616-bece8160629e}, ! Handle
  1/2IN Gypsum,                           ! Name
  Smooth,                                 ! Roughness
  0.01271,                                ! Thickness {m}
  0.16,                                   ! Conductivity {W/m-K}
  784.9,                                  ! Density {kg/m3}
  830,                                    ! Specific Heat {J/kg-K}
  0.9,                                    ! Thermal Absorptance
  0.92,                                   ! Solar Absorptance
  0.92;                                   ! Visible Absorptance

OS:Construction,
  {fa469190-fdfa-42be-acc3-66bbf6640f9b}, ! Handle
  90.1-2001 Res B1 Ext Wall Wood-Framed and Other, ! Name
  ,                                       ! Surface Rendering Name
  {63b86b66-3654-4d0d-b742-443418952f2e}, ! Layer 1
  {e19e15ae-0c62-403e-9de5-e72a745648cb}, ! Layer 2
  {bf368877-38ea-4ad3-b616-bece8160629e}; ! Layer 3

OS:ComponentCost:LineItem,
  {9bd8cb0d-88ff-4c3e-b57d-79b23cadc14c}, ! Handle
  90.1-2001 Res B1 Ext Wall Wood-Framed and Other, ! Name
  ,                                       ! Type
  Construction,                           ! Line Item Type
  90.1-2001 Res B1 Ext Wall Wood-Framed and Other, ! Item Name
  ,                                       ! Object End Use Key
  ,                                       ! Quantity {dimensionless}
  73.056,                                 ! Material Cost {$}
  CostPerArea;                            ! Material Cost Units

