
OS:Version,
  {6ff45247-fec3-4c61-b196-76b62890268b}, ! Handle
  0.9.3;                                  ! Version Identifier

OS:Construction,
  {bcbc9343-03eb-439d-bb85-215b6b136bf7}, ! Handle
  189.1-2009 Res 3A Ext Wall Steel-Framed, ! Name
  ,                                       ! Surface Rendering Name
  {998baa20-c199-49b3-9a05-afe719bf8198}, ! Layer 1
  {af8de810-aaa8-4912-8c8f-08c0dc866b8f}, ! Layer 2
  {c23ec2dd-0791-4b94-8e97-9bfe890197f1}; ! Layer 3

OS:Material:NoMass,
  {998baa20-c199-49b3-9a05-afe719bf8198}, ! Handle
  MAT-SHEATH,                             ! Name
  Rough,                                  ! Roughness
  0.36256,                                ! Thermal Resistance {m2-K/W}
  0.9,                                    ! Thermal Absorptance
  0.7,                                    ! Solar Absorptance
  0.7;                                    ! Visible Absorptance

OS:Material,
  {af8de810-aaa8-4912-8c8f-08c0dc866b8f}, ! Handle
  Wall Insulation [39],                   ! Name
  MediumRough,                            ! Roughness
  0.118387,                               ! Thickness {m}
  0.045,                                  ! Conductivity {W/m-K}
  265,                                    ! Density {kg/m3}
  836.8,                                  ! Specific Heat {J/kg-K}
  0.9,                                    ! Thermal Absorptance
  0.7,                                    ! Solar Absorptance
  0.7;                                    ! Visible Absorptance

OS:Material,
  {c23ec2dd-0791-4b94-8e97-9bfe890197f1}, ! Handle
  1/2IN Gypsum,                           ! Name
  Smooth,                                 ! Roughness
  0.01271,                                ! Thickness {m}
  0.16,                                   ! Conductivity {W/m-K}
  784.9,                                  ! Density {kg/m3}
  830,                                    ! Specific Heat {J/kg-K}
  0.9,                                    ! Thermal Absorptance
  0.92,                                   ! Solar Absorptance
  0.92;                                   ! Visible Absorptance

OS:ComponentCost:LineItem,
  {0dbd1a7d-d976-4f47-bb69-81a4ccdb97ec}, ! Handle
  189.1-2009 Res 3A Ext Wall Steel-Framed, ! Name
  ,                                       ! Type
  Construction,                           ! Line Item Type
  189.1-2009 Res 3A Ext Wall Steel-Framed, ! Item Name
  ,                                       ! Object End Use Key
  ,                                       ! Quantity {dimensionless}
  97.51,                                  ! Material Cost {$}
  CostPerArea;                            ! Material Cost Units

