
OS:Version,
  {e48c59f1-3b11-45ab-bf6e-ea41c35fea70}, ! Handle
  0.9.3;                                  ! Version Identifier

OS:Construction,
  {8822cf17-9176-4ab1-b391-1a4a1df2a4d6}, ! Handle
  189.1-2009 Res 3A Ext Wall Steel-Framed, ! Name
  ,                                       ! Surface Rendering Name
  {a47742f7-0fa7-4036-8bac-38f201c63f42}, ! Layer 1
  {132921a8-2bc0-4138-bb70-14ce4e2823eb}, ! Layer 2
  {80bcebab-14fe-4964-b989-c3b7b46de904}; ! Layer 3

OS:Material:NoMass,
  {a47742f7-0fa7-4036-8bac-38f201c63f42}, ! Handle
  MAT-SHEATH,                             ! Name
  Rough,                                  ! Roughness
  0.36256,                                ! Thermal Resistance {m2-K/W}
  0.9,                                    ! Thermal Absorptance
  0.7,                                    ! Solar Absorptance
  0.7;                                    ! Visible Absorptance

OS:Material,
  {132921a8-2bc0-4138-bb70-14ce4e2823eb}, ! Handle
  Wall Insulation [39],                   ! Name
  MediumRough,                            ! Roughness
  0.118387,                               ! Thickness {m}
  0.045,                                  ! Conductivity {W/m-K}
  265,                                    ! Density {kg/m3}
  836.8,                                  ! Specific Heat {J/kg-K}
  0.9,                                    ! Thermal Absorptance
  0.7,                                    ! Solar Absorptance
  0.7;                                    ! Visible Absorptance

OS:Material,
  {80bcebab-14fe-4964-b989-c3b7b46de904}, ! Handle
  1/2IN Gypsum,                           ! Name
  Smooth,                                 ! Roughness
  0.01271,                                ! Thickness {m}
  0.16,                                   ! Conductivity {W/m-K}
  784.9,                                  ! Density {kg/m3}
  830,                                    ! Specific Heat {J/kg-K}
  0.9,                                    ! Thermal Absorptance
  0.92,                                   ! Solar Absorptance
  0.92;                                   ! Visible Absorptance

OS:ComponentCost:LineItem,
  {b24b48e9-79e1-462f-9934-418d10759d55}, ! Handle
  189.1-2009 Res 3A Ext Wall Steel-Framed, ! Name
  ,                                       ! Type
  Construction,                           ! Line Item Type
  189.1-2009 Res 3A Ext Wall Steel-Framed, ! Item Name
  ,                                       ! Object End Use Key
  ,                                       ! Quantity {dimensionless}
  97.51,                                  ! Material Cost {$}
  CostPerArea;                            ! Material Cost Units

OS:ComponentData,
  {162bc18e-e4cb-4c7f-9171-2d70d70e2f3a}, ! Handle
  Component Data 1,                       ! Name
  {156a4025-8c3c-4a54-9c90-e4906d7391aa}, ! UUID
  {67bacf1e-8d0b-47a1-961d-226abc34efc5}, ! Version UUID
  1363980967,                             ! Creation Timestamp
  1363980967,                             ! Version Timestamp
  {8822cf17-9176-4ab1-b391-1a4a1df2a4d6}, ! Name of Object 1
  {a47742f7-0fa7-4036-8bac-38f201c63f42}, ! Name of Object 2
  {132921a8-2bc0-4138-bb70-14ce4e2823eb}, ! Name of Object 3
  {80bcebab-14fe-4964-b989-c3b7b46de904}, ! Name of Object 4
  {b24b48e9-79e1-462f-9934-418d10759d55}; ! Name of Object 5

