
OS:Version,
  {3b118e1f-45b9-4f3d-aba3-7b7e97f6e9fb}, ! Handle
  0.9.3;                                  ! Version Identifier

OS:Construction,
  {da9a3a23-2128-4cab-ab96-45c322dd6b5c}, ! Handle
  90.1-1999 Nonres B15 Ext Slab Unheated - 4in Slab without Carpet, ! Name
  ,                                       ! Surface Rendering Name
  {ed8bd1f8-f28e-41a2-9e3b-43233778501c}; ! Layer 1

OS:Material,
  {ed8bd1f8-f28e-41a2-9e3b-43233778501c}, ! Handle
  MAT-CC05 4 HW CONCRETE,                 ! Name
  Rough,                                  ! Roughness
  0.1016,                                 ! Thickness {m}
  1.311,                                  ! Conductivity {W/m-K}
  2240,                                   ! Density {kg/m3}
  836.8,                                  ! Specific Heat {J/kg-K}
  0.9,                                    ! Thermal Absorptance
  0.7,                                    ! Solar Absorptance
  0.7;                                    ! Visible Absorptance

OS:ComponentCost:LineItem,
  {565e68e7-d0a8-4008-a493-2df5bd38eff0}, ! Handle
  90.1-1999 Nonres B15 Ext Slab Unheated - 4in Slab without Carpet, ! Name
  ,                                       ! Type
  Construction,                           ! Line Item Type
  90.1-1999 Nonres B15 Ext Slab Unheated - 4in Slab without Carpet, ! Item Name
  ,                                       ! Object End Use Key
  ,                                       ! Quantity {dimensionless}
  45.52,                                  ! Material Cost {$}
  CostPerArea;                            ! Material Cost Units

OS:ComponentData,
  {fd0a0b3e-e872-4411-add2-3d61ce22a1ab}, ! Handle
  Component Data 1,                       ! Name
  {cbcaf3e2-fe72-4b8a-835f-be975bb82d74}, ! UUID
  {8358bba3-d0b1-4a6f-b730-4d3a22a773e7}, ! Version UUID
  1363981106,                             ! Creation Timestamp
  1363981106,                             ! Version Timestamp
  {da9a3a23-2128-4cab-ab96-45c322dd6b5c}, ! Name of Object 1
  {ed8bd1f8-f28e-41a2-9e3b-43233778501c}, ! Name of Object 2
  {565e68e7-d0a8-4008-a493-2df5bd38eff0}; ! Name of Object 3

