
OS:Version,
  {a40733d0-f04f-4959-99b4-f0853a614353}, ! Handle
  0.9.3;                                  ! Version Identifier

OS:Material,
  {8e0f140b-3d21-4453-a68a-61543151ae3f}, ! Handle
  Roof Membrane,                          ! Name
  VeryRough,                              ! Roughness
  0.0095,                                 ! Thickness {m}
  0.16,                                   ! Conductivity {W/m-K}
  1121.29,                                ! Density {kg/m3}
  1460,                                   ! Specific Heat {J/kg-K}
  0.9,                                    ! Thermal Absorptance
  0.7,                                    ! Solar Absorptance
  0.7;                                    ! Visible Absorptance

OS:ComponentCost:LineItem,
  {073f9721-aaff-4d7a-982e-093fc591a059}, ! Handle
  90.1-2001 Nonres B4 Roof IEAD,          ! Name
  ,                                       ! Type
  Construction,                           ! Line Item Type
  90.1-2001 Nonres B4 Roof IEAD,          ! Item Name
  ,                                       ! Object End Use Key
  ,                                       ! Quantity {dimensionless}
  45.318,                                 ! Material Cost {$}
  CostPerArea;                            ! Material Cost Units

OS:Material,
  {5d4fbf21-5c72-4289-bc57-1d3b134508e4}, ! Handle
  Metal Decking,                          ! Name
  MediumSmooth,                           ! Roughness
  0.001524,                               ! Thickness {m}
  45.006,                                 ! Conductivity {W/m-K}
  7680,                                   ! Density {kg/m3}
  418.4,                                  ! Specific Heat {J/kg-K}
  0.9,                                    ! Thermal Absorptance
  0.7,                                    ! Solar Absorptance
  0.3;                                    ! Visible Absorptance

OS:Construction,
  {6c8aa082-5e37-482e-98ac-db4ee8e4d8dc}, ! Handle
  90.1-2001 Nonres B4 Roof IEAD,          ! Name
  ,                                       ! Surface Rendering Name
  {8e0f140b-3d21-4453-a68a-61543151ae3f}, ! Layer 1
  {025bc5ac-bd40-4846-a341-eaaaf374f7d8}, ! Layer 2
  {5d4fbf21-5c72-4289-bc57-1d3b134508e4}; ! Layer 3

OS:Material,
  {025bc5ac-bd40-4846-a341-eaaaf374f7d8}, ! Handle
  Roof Insulation [3],                    ! Name
  MediumRough,                            ! Roughness
  0.0806842,                              ! Thickness {m}
  0.049,                                  ! Conductivity {W/m-K}
  265,                                    ! Density {kg/m3}
  836.8,                                  ! Specific Heat {J/kg-K}
  0.9,                                    ! Thermal Absorptance
  0.7,                                    ! Solar Absorptance
  0.7;                                    ! Visible Absorptance

