
OS:Version,
  {d7c3ef8c-3712-4902-97ed-62d41e46679f}, ! Handle
  0.9.3;                                  ! Version Identifier

OS:ComponentCost:LineItem,
  {6ce50fa5-1711-48af-b244-23a2321e623b}, ! Handle
  90.1-2001 Res B20 Ext Wall Steel-Framed, ! Name
  ,                                       ! Type
  Construction,                           ! Line Item Type
  90.1-2001 Res B20 Ext Wall Steel-Framed, ! Item Name
  ,                                       ! Object End Use Key
  ,                                       ! Quantity {dimensionless}
  94.657,                                 ! Material Cost {$}
  CostPerArea;                            ! Material Cost Units

OS:Material,
  {8d309c04-f0de-48d4-bf35-e4e50ef9e717}, ! Handle
  1/2IN Gypsum,                           ! Name
  Smooth,                                 ! Roughness
  0.01271,                                ! Thickness {m}
  0.16,                                   ! Conductivity {W/m-K}
  784.9,                                  ! Density {kg/m3}
  830,                                    ! Specific Heat {J/kg-K}
  0.9,                                    ! Thermal Absorptance
  0.92,                                   ! Solar Absorptance
  0.92;                                   ! Visible Absorptance

OS:Material:NoMass,
  {03b49a7c-d85e-432f-abef-8f595f5f31f5}, ! Handle
  MAT-SHEATH,                             ! Name
  Rough,                                  ! Roughness
  0.36256,                                ! Thermal Resistance {m2-K/W}
  0.9,                                    ! Thermal Absorptance
  0.7,                                    ! Solar Absorptance
  0.7;                                    ! Visible Absorptance

OS:Construction,
  {a22d504c-1551-4a65-bcc5-6b7c452a4bf3}, ! Handle
  90.1-2001 Res B20 Ext Wall Steel-Framed, ! Name
  ,                                       ! Surface Rendering Name
  {03b49a7c-d85e-432f-abef-8f595f5f31f5}, ! Layer 1
  {641228e4-2ccc-4349-bc26-d9581f69735a}, ! Layer 2
  {8d309c04-f0de-48d4-bf35-e4e50ef9e717}; ! Layer 3

OS:Material,
  {641228e4-2ccc-4349-bc26-d9581f69735a}, ! Handle
  Wall Insulation [10],                   ! Name
  MediumRough,                            ! Roughness
  0.0971136,                              ! Thickness {m}
  0.045,                                  ! Conductivity {W/m-K}
  265,                                    ! Density {kg/m3}
  836.8,                                  ! Specific Heat {J/kg-K}
  0.9,                                    ! Thermal Absorptance
  0.7,                                    ! Solar Absorptance
  0.7;                                    ! Visible Absorptance

