
OS:Version,
  {8e96a5a1-2459-4224-bacb-0476b4ee719f}, ! Handle
  0.9.3;                                  ! Version Identifier

OS:Material:NoMass,
  {b3e82431-c74b-4d8e-8fe6-2afc418bf478}, ! Handle
  CP02 CARPET PAD,                        ! Name
  VeryRough,                              ! Roughness
  0.21648,                                ! Thermal Resistance {m2-K/W}
  0.9,                                    ! Thermal Absorptance
  0.7,                                    ! Solar Absorptance
  0.8;                                    ! Visible Absorptance

OS:ComponentCost:LineItem,
  {d19fb399-1d97-48f4-ac5f-032ff1a9275f}, ! Handle
  90.1-2007 Nonres 8A Ext Slab Unheated - 8in Slab with Carpet, ! Name
  ,                                       ! Type
  Construction,                           ! Line Item Type
  90.1-2007 Nonres 8A Ext Slab Unheated - 8in Slab with Carpet, ! Item Name
  ,                                       ! Object End Use Key
  ,                                       ! Quantity {dimensionless}
  45.52,                                  ! Material Cost {$}
  CostPerArea;                            ! Material Cost Units

OS:Material,
  {a8f238d6-e5bd-4a0e-a851-9016843aaa93}, ! Handle
  MAT-CC05 8 HW CONCRETE,                 ! Name
  Rough,                                  ! Roughness
  0.20321,                                ! Thickness {m}
  1.311,                                  ! Conductivity {W/m-K}
  2240,                                   ! Density {kg/m3}
  836.8,                                  ! Specific Heat {J/kg-K}
  0.9,                                    ! Thermal Absorptance
  0.7,                                    ! Solar Absorptance
  0.7;                                    ! Visible Absorptance

OS:Construction,
  {76608d40-478e-4385-8118-3504be3cdabe}, ! Handle
  90.1-2007 Nonres 8A Ext Slab Unheated - 8in Slab with Carpet, ! Name
  ,                                       ! Surface Rendering Name
  {a8f238d6-e5bd-4a0e-a851-9016843aaa93}, ! Layer 1
  {b3e82431-c74b-4d8e-8fe6-2afc418bf478}; ! Layer 2

