
OS:Version,
  {b136ba3d-0c8f-4cef-845f-f2440204ce2c}, ! Handle
  0.9.3;                                  ! Version Identifier

OS:Construction,
  {abe95ba3-9a04-4b0d-b8fe-75d55628dff2}, ! Handle
  90.1-2007 Nonres 8A Ext Slab Unheated - 8in Slab with Carpet, ! Name
  ,                                       ! Surface Rendering Name
  {88a4096d-e070-4c4c-afa0-559b5aea4287}, ! Layer 1
  {3b66b91e-f199-4e92-8357-4326ec176b6f}; ! Layer 2

OS:Material,
  {88a4096d-e070-4c4c-afa0-559b5aea4287}, ! Handle
  MAT-CC05 8 HW CONCRETE,                 ! Name
  Rough,                                  ! Roughness
  0.20321,                                ! Thickness {m}
  1.311,                                  ! Conductivity {W/m-K}
  2240,                                   ! Density {kg/m3}
  836.8,                                  ! Specific Heat {J/kg-K}
  0.9,                                    ! Thermal Absorptance
  0.7,                                    ! Solar Absorptance
  0.7;                                    ! Visible Absorptance

OS:Material:NoMass,
  {3b66b91e-f199-4e92-8357-4326ec176b6f}, ! Handle
  CP02 CARPET PAD,                        ! Name
  VeryRough,                              ! Roughness
  0.21648,                                ! Thermal Resistance {m2-K/W}
  0.9,                                    ! Thermal Absorptance
  0.7,                                    ! Solar Absorptance
  0.8;                                    ! Visible Absorptance

OS:ComponentCost:LineItem,
  {33e56b2c-956a-453e-8501-fc4a8611ea41}, ! Handle
  90.1-2007 Nonres 8A Ext Slab Unheated - 8in Slab with Carpet, ! Name
  ,                                       ! Type
  Construction,                           ! Line Item Type
  90.1-2007 Nonres 8A Ext Slab Unheated - 8in Slab with Carpet, ! Item Name
  ,                                       ! Object End Use Key
  ,                                       ! Quantity {dimensionless}
  45.52,                                  ! Material Cost {$}
  CostPerArea;                            ! Material Cost Units

OS:ComponentData,
  {e7666781-200d-4e29-a565-5e2987cb897b}, ! Handle
  Component Data 1,                       ! Name
  {57265f30-6b6f-4a9e-adc8-c87154027630}, ! UUID
  {2d4c403e-5555-46fe-b5d0-0876d99443ad}, ! Version UUID
  1363981827,                             ! Creation Timestamp
  1363981827,                             ! Version Timestamp
  {abe95ba3-9a04-4b0d-b8fe-75d55628dff2}, ! Name of Object 1
  {88a4096d-e070-4c4c-afa0-559b5aea4287}, ! Name of Object 2
  {3b66b91e-f199-4e92-8357-4326ec176b6f}, ! Name of Object 3
  {33e56b2c-956a-453e-8501-fc4a8611ea41}; ! Name of Object 4

