
OS:Version,
  {a8416c22-fd52-48aa-b354-1ff27ac27c73}, ! Handle
  0.9.3;                                  ! Version Identifier

OS:Construction,
  {f9d13eaa-1d90-49f6-800b-e67b78138026}, ! Handle
  90.1-1999 Res B11 Ext Wall Mass,        ! Name
  ,                                       ! Surface Rendering Name
  {e6d66056-f7f2-4d01-9e7c-2c0d3d31e54b}, ! Layer 1
  {5f61d1a5-1546-4b24-abe8-c9ff8fd3cc19}, ! Layer 2
  {8ae45bc0-ca7a-4d13-ba80-cf2523cedc6e}, ! Layer 3
  {f12438d1-115d-46dd-bda9-ae51e9bc28b3}; ! Layer 4

OS:Material,
  {e6d66056-f7f2-4d01-9e7c-2c0d3d31e54b}, ! Handle
  1IN Stucco,                             ! Name
  Smooth,                                 ! Roughness
  0.0253,                                 ! Thickness {m}
  0.6918,                                 ! Conductivity {W/m-K}
  1858,                                   ! Density {kg/m3}
  837,                                    ! Specific Heat {J/kg-K}
  0.9,                                    ! Thermal Absorptance
  0.92,                                   ! Solar Absorptance
  0.92;                                   ! Visible Absorptance

OS:Material,
  {5f61d1a5-1546-4b24-abe8-c9ff8fd3cc19}, ! Handle
  8IN Concrete HW,                        ! Name
  MediumRough,                            ! Roughness
  0.2033,                                 ! Thickness {m}
  1.7296,                                 ! Conductivity {W/m-K}
  2243,                                   ! Density {kg/m3}
  837,                                    ! Specific Heat {J/kg-K}
  0.9,                                    ! Thermal Absorptance
  0.65,                                   ! Solar Absorptance
  0.65;                                   ! Visible Absorptance

OS:Material,
  {8ae45bc0-ca7a-4d13-ba80-cf2523cedc6e}, ! Handle
  Wall Insulation [5],                    ! Name
  MediumRough,                            ! Roughness
  0.0453274,                              ! Thickness {m}
  0.0432,                                 ! Conductivity {W/m-K}
  91,                                     ! Density {kg/m3}
  837,                                    ! Specific Heat {J/kg-K}
  0.9,                                    ! Thermal Absorptance
  0.5,                                    ! Solar Absorptance
  0.5;                                    ! Visible Absorptance

OS:Material,
  {f12438d1-115d-46dd-bda9-ae51e9bc28b3}, ! Handle
  1/2IN Gypsum,                           ! Name
  Smooth,                                 ! Roughness
  0.01271,                                ! Thickness {m}
  0.16,                                   ! Conductivity {W/m-K}
  784.9,                                  ! Density {kg/m3}
  830,                                    ! Specific Heat {J/kg-K}
  0.9,                                    ! Thermal Absorptance
  0.92,                                   ! Solar Absorptance
  0.92;                                   ! Visible Absorptance

OS:ComponentCost:LineItem,
  {8e89d4b5-af05-4576-afb4-5ca9f834320a}, ! Handle
  90.1-1999 Res B11 Ext Wall Mass,        ! Name
  ,                                       ! Type
  Construction,                           ! Line Item Type
  90.1-1999 Res B11 Ext Wall Mass,        ! Item Name
  ,                                       ! Object End Use Key
  ,                                       ! Quantity {dimensionless}
  61.418,                                 ! Material Cost {$}
  CostPerArea;                            ! Material Cost Units

OS:ComponentData,
  {14bd19bf-85e2-4711-946f-92fcd14532a7}, ! Handle
  Component Data 1,                       ! Name
  {b457976c-7154-4b90-b827-647cf7899088}, ! UUID
  {969f1204-2ced-4ee9-9822-c9baa326a424}, ! Version UUID
  1363981210,                             ! Creation Timestamp
  1363981210,                             ! Version Timestamp
  {f9d13eaa-1d90-49f6-800b-e67b78138026}, ! Name of Object 1
  {e6d66056-f7f2-4d01-9e7c-2c0d3d31e54b}, ! Name of Object 2
  {5f61d1a5-1546-4b24-abe8-c9ff8fd3cc19}, ! Name of Object 3
  {8ae45bc0-ca7a-4d13-ba80-cf2523cedc6e}, ! Name of Object 4
  {f12438d1-115d-46dd-bda9-ae51e9bc28b3}, ! Name of Object 5
  {8e89d4b5-af05-4576-afb4-5ca9f834320a}; ! Name of Object 6

