
OS:Version,
  {8aed339a-9eec-4b02-898f-33107cf2c29d}, ! Handle
  0.9.3;                                  ! Version Identifier

OS:ComponentCost:LineItem,
  {4bf9dbf7-b9f0-40ef-a5bd-230a3e5e88f5}, ! Handle
  90.1-1999 Res B11 Ext Wall Mass,        ! Name
  ,                                       ! Type
  Construction,                           ! Line Item Type
  90.1-1999 Res B11 Ext Wall Mass,        ! Item Name
  ,                                       ! Object End Use Key
  ,                                       ! Quantity {dimensionless}
  61.418,                                 ! Material Cost {$}
  CostPerArea;                            ! Material Cost Units

OS:Material,
  {523437b7-bf0f-420c-94bb-cb7f735f6dac}, ! Handle
  Wall Insulation [5],                    ! Name
  MediumRough,                            ! Roughness
  0.0453274,                              ! Thickness {m}
  0.0432,                                 ! Conductivity {W/m-K}
  91,                                     ! Density {kg/m3}
  837,                                    ! Specific Heat {J/kg-K}
  0.9,                                    ! Thermal Absorptance
  0.5,                                    ! Solar Absorptance
  0.5;                                    ! Visible Absorptance

OS:Material,
  {4369d122-7b26-4d8e-9fd9-1f4c9f598dfa}, ! Handle
  1/2IN Gypsum,                           ! Name
  Smooth,                                 ! Roughness
  0.01271,                                ! Thickness {m}
  0.16,                                   ! Conductivity {W/m-K}
  784.9,                                  ! Density {kg/m3}
  830,                                    ! Specific Heat {J/kg-K}
  0.9,                                    ! Thermal Absorptance
  0.92,                                   ! Solar Absorptance
  0.92;                                   ! Visible Absorptance

OS:Material,
  {b6556398-da2f-428b-9d7c-e2110296f883}, ! Handle
  1IN Stucco,                             ! Name
  Smooth,                                 ! Roughness
  0.0253,                                 ! Thickness {m}
  0.6918,                                 ! Conductivity {W/m-K}
  1858,                                   ! Density {kg/m3}
  837,                                    ! Specific Heat {J/kg-K}
  0.9,                                    ! Thermal Absorptance
  0.92,                                   ! Solar Absorptance
  0.92;                                   ! Visible Absorptance

OS:Construction,
  {c018d9fc-6ea4-4563-83ee-fbd7a651b528}, ! Handle
  90.1-1999 Res B11 Ext Wall Mass,        ! Name
  ,                                       ! Surface Rendering Name
  {b6556398-da2f-428b-9d7c-e2110296f883}, ! Layer 1
  {12135e21-c638-48e4-9723-137511cf3425}, ! Layer 2
  {523437b7-bf0f-420c-94bb-cb7f735f6dac}, ! Layer 3
  {4369d122-7b26-4d8e-9fd9-1f4c9f598dfa}; ! Layer 4

OS:Material,
  {12135e21-c638-48e4-9723-137511cf3425}, ! Handle
  8IN Concrete HW,                        ! Name
  MediumRough,                            ! Roughness
  0.2033,                                 ! Thickness {m}
  1.7296,                                 ! Conductivity {W/m-K}
  2243,                                   ! Density {kg/m3}
  837,                                    ! Specific Heat {J/kg-K}
  0.9,                                    ! Thermal Absorptance
  0.65,                                   ! Solar Absorptance
  0.65;                                   ! Visible Absorptance

