
OS:Version,
  {f0842135-74ef-44eb-8834-e9011e944122}, ! Handle
  0.9.3;                                  ! Version Identifier

OS:ComponentCost:LineItem,
  {f21ed834-853d-45c3-86e7-eb0032b7afc2}, ! Handle
  Title 24-2008 Nonres 11 Ext Wall Metal Building, ! Name
  ,                                       ! Type
  Construction,                           ! Line Item Type
  Title 24-2008 Nonres 11 Ext Wall Metal Building, ! Item Name
  ,                                       ! Object End Use Key
  ,                                       ! Quantity {dimensionless}
  184.211,                                ! Material Cost {$}
  CostPerArea;                            ! Material Cost Units

OS:Material,
  {02b46af8-65fd-4ec8-aea0-a58b235f5c66}, ! Handle
  1/2IN Gypsum,                           ! Name
  Smooth,                                 ! Roughness
  0.01271,                                ! Thickness {m}
  0.16,                                   ! Conductivity {W/m-K}
  784.9,                                  ! Density {kg/m3}
  830,                                    ! Specific Heat {J/kg-K}
  0.9,                                    ! Thermal Absorptance
  0.92,                                   ! Solar Absorptance
  0.92;                                   ! Visible Absorptance

OS:Material,
  {9e843bdb-2fb2-46b3-8b44-ce406c42cd8d}, ! Handle
  Metal Siding,                           ! Name
  Smooth,                                 ! Roughness
  0.0015,                                 ! Thickness {m}
  44.96,                                  ! Conductivity {W/m-K}
  7688.86,                                ! Density {kg/m3}
  410,                                    ! Specific Heat {J/kg-K}
  0.9,                                    ! Thermal Absorptance
  0.2,                                    ! Solar Absorptance
  0.2;                                    ! Visible Absorptance

OS:Material,
  {ac2d83a3-b2c8-40cc-8725-34e526a257a3}, ! Handle
  Wall Insulation [159],                  ! Name
  MediumRough,                            ! Roughness
  0.0812,                                 ! Thickness {m}
  0.045,                                  ! Conductivity {W/m-K}
  265,                                    ! Density {kg/m3}
  836.8,                                  ! Specific Heat {J/kg-K}
  0.9,                                    ! Thermal Absorptance
  0.7,                                    ! Solar Absorptance
  0.7;                                    ! Visible Absorptance

OS:Construction,
  {572af61d-fb8c-4e3b-af00-4282a396e167}, ! Handle
  Title 24-2008 Nonres 11 Ext Wall Metal Building, ! Name
  ,                                       ! Surface Rendering Name
  {9e843bdb-2fb2-46b3-8b44-ce406c42cd8d}, ! Layer 1
  {ac2d83a3-b2c8-40cc-8725-34e526a257a3}, ! Layer 2
  {02b46af8-65fd-4ec8-aea0-a58b235f5c66}; ! Layer 3

