
OS:Version,
  {9440a9e8-396d-4267-a656-71b810873db7}, ! Handle
  0.9.3;                                  ! Version Identifier

OS:ComponentCost:LineItem,
  {5b8a9435-2dd9-409e-b01d-27b49fcbaeaf}, ! Handle
  90.1-2001 Res B15 Ext Wall Steel-Framed, ! Name
  ,                                       ! Type
  Construction,                           ! Line Item Type
  90.1-2001 Res B15 Ext Wall Steel-Framed, ! Item Name
  ,                                       ! Object End Use Key
  ,                                       ! Quantity {dimensionless}
  91.749,                                 ! Material Cost {$}
  CostPerArea;                            ! Material Cost Units

OS:Construction,
  {8854494c-d727-4b9e-a952-75a715c02978}, ! Handle
  90.1-2001 Res B15 Ext Wall Steel-Framed, ! Name
  ,                                       ! Surface Rendering Name
  {09962418-1a13-49a8-aec6-00a4dbb008c7}, ! Layer 1
  {b12e4840-292e-4669-b585-4ef478459011}, ! Layer 2
  {25b86fb3-07e3-400f-aff3-e2a6e2fb6d8e}; ! Layer 3

OS:Material:NoMass,
  {09962418-1a13-49a8-aec6-00a4dbb008c7}, ! Handle
  MAT-SHEATH,                             ! Name
  Rough,                                  ! Roughness
  0.36256,                                ! Thermal Resistance {m2-K/W}
  0.9,                                    ! Thermal Absorptance
  0.7,                                    ! Solar Absorptance
  0.7;                                    ! Visible Absorptance

OS:Material,
  {b12e4840-292e-4669-b585-4ef478459011}, ! Handle
  Wall Insulation [6],                    ! Name
  MediumRough,                            ! Roughness
  0.0678449,                              ! Thickness {m}
  0.045,                                  ! Conductivity {W/m-K}
  265,                                    ! Density {kg/m3}
  836.8,                                  ! Specific Heat {J/kg-K}
  0.9,                                    ! Thermal Absorptance
  0.7,                                    ! Solar Absorptance
  0.7;                                    ! Visible Absorptance

OS:Material,
  {25b86fb3-07e3-400f-aff3-e2a6e2fb6d8e}, ! Handle
  1/2IN Gypsum,                           ! Name
  Smooth,                                 ! Roughness
  0.01271,                                ! Thickness {m}
  0.16,                                   ! Conductivity {W/m-K}
  784.9,                                  ! Density {kg/m3}
  830,                                    ! Specific Heat {J/kg-K}
  0.9,                                    ! Thermal Absorptance
  0.92,                                   ! Solar Absorptance
  0.92;                                   ! Visible Absorptance

