
OS:Version,
  {cfd86be9-cdbd-4e61-9c1c-74528b2cfc60}, ! Handle
  0.9.3;                                  ! Version Identifier

OS:Construction,
  {93655a3c-bcbe-443e-9d37-ef353cca1154}, ! Handle
  189.1-2009 Nonres 3A Window Metal framing all other, ! Name
  ,                                       ! Surface Rendering Name
  {1feae918-cb34-442e-87d6-ddb43f793d72}; ! Layer 1

OS:WindowMaterial:Glazing,
  {1feae918-cb34-442e-87d6-ddb43f793d72}, ! Handle
  Theoretical Glass [202],                ! Name
  SpectralAverage,                        ! Optical Data Type
  ,                                       ! Window Glass Spectral Data Set Name
  0.003,                                  ! Thickness {m}
  0.232469,                               ! Solar Transmittance at Normal Incidence
  0.717531,                               ! Front Side Solar Reflectance at Normal Incidence
  0.717531,                               ! Back Side Solar Reflectance at Normal Incidence
  0.319199,                               ! Visible Transmittance at Normal Incidence
  0.630801,                               ! Front Side Visible Reflectance at Normal Incidence
  0.630801,                               ! Back Side Visible Reflectance at Normal Incidence
  0,                                      ! Infrared Transmittance at Normal Incidence
  0.9,                                    ! Front Side Infrared Hemispherical Emissivity
  0.9,                                    ! Back Side Infrared Hemispherical Emissivity
  0.019186;                               ! Conductivity {W/m-K}

OS:ComponentCost:LineItem,
  {1afe93fb-9c93-4ded-a674-35c483277193}, ! Handle
  189.1-2009 Nonres 3A Window Metal framing all other, ! Name
  ,                                       ! Type
  Construction,                           ! Line Item Type
  189.1-2009 Nonres 3A Window Metal framing all other, ! Item Name
  ,                                       ! Object End Use Key
  ,                                       ! Quantity {dimensionless}
  577.118,                                ! Material Cost {$}
  CostPerArea;                            ! Material Cost Units

