
OS:Version,
  {350e43da-4745-4977-9e45-7058efee99d0}, ! Handle
  0.9.3;                                  ! Version Identifier

OS:ComponentCost:LineItem,
  {547dc01c-4803-49d3-8088-515ca0ba6589}, ! Handle
  Title 24-2008 Nonres 3 Exposed Floor Mass, ! Name
  ,                                       ! Type
  Construction,                           ! Line Item Type
  Title 24-2008 Nonres 3 Exposed Floor Mass, ! Item Name
  ,                                       ! Object End Use Key
  ,                                       ! Quantity {dimensionless}
  40.432,                                 ! Material Cost {$}
  CostPerArea;                            ! Material Cost Units

OS:Material,
  {b59b5696-0b69-4f1d-83c0-7aa13759b2fb}, ! Handle
  MAT-CC05 8 HW CONCRETE,                 ! Name
  Rough,                                  ! Roughness
  0.20321,                                ! Thickness {m}
  1.311,                                  ! Conductivity {W/m-K}
  2240,                                   ! Density {kg/m3}
  836.8,                                  ! Specific Heat {J/kg-K}
  0.9,                                    ! Thermal Absorptance
  0.7,                                    ! Solar Absorptance
  0.7;                                    ! Visible Absorptance

OS:Material,
  {e307f725-e071-4115-a489-d1fa44bc753c}, ! Handle
  Floor Insulation [56],                  ! Name
  MediumRough,                            ! Roughness
  0.0018265,                              ! Thickness {m}
  0.045,                                  ! Conductivity {W/m-K}
  265,                                    ! Density {kg/m3}
  836.8,                                  ! Specific Heat {J/kg-K}
  0.9,                                    ! Thermal Absorptance
  0.7,                                    ! Solar Absorptance
  0.7;                                    ! Visible Absorptance

OS:Material:NoMass,
  {79a92ac4-bdd6-4edc-94a9-17c165c5c386}, ! Handle
  CP02 CARPET PAD,                        ! Name
  VeryRough,                              ! Roughness
  0.21648,                                ! Thermal Resistance {m2-K/W}
  0.9,                                    ! Thermal Absorptance
  0.7,                                    ! Solar Absorptance
  0.8;                                    ! Visible Absorptance

OS:Construction,
  {49fddc3a-78c9-4c9d-a1c3-ea3fb0ea8907}, ! Handle
  Title 24-2008 Nonres 3 Exposed Floor Mass, ! Name
  ,                                       ! Surface Rendering Name
  {e307f725-e071-4115-a489-d1fa44bc753c}, ! Layer 1
  {b59b5696-0b69-4f1d-83c0-7aa13759b2fb}, ! Layer 2
  {79a92ac4-bdd6-4edc-94a9-17c165c5c386}; ! Layer 3

