
OS:Version,
  {a196664f-c336-4561-bfb9-5d17b514e914}, ! Handle
  0.9.3;                                  ! Version Identifier

OS:ComponentCost:LineItem,
  {8a7624ad-c982-4e20-9e00-94ba98e6bdc2}, ! Handle
  90.1-2001 Nonres B17 Int Wall,          ! Name
  ,                                       ! Type
  Construction,                           ! Line Item Type
  90.1-2001 Nonres B17 Int Wall,          ! Item Name
  ,                                       ! Object End Use Key
  ,                                       ! Quantity {dimensionless}
  0,                                      ! Material Cost {$}
  CostPerArea;                            ! Material Cost Units

OS:Construction,
  {4cd69bb1-379e-4385-918e-4cc55414a89b}, ! Handle
  90.1-2001 Nonres B17 Int Wall,          ! Name
  ,                                       ! Surface Rendering Name
  {126e0dba-6513-44a7-bb82-ecba3aa44b0f}, ! Layer 1
  {126e0dba-6513-44a7-bb82-ecba3aa44b0f}; ! Layer 2

OS:Material,
  {126e0dba-6513-44a7-bb82-ecba3aa44b0f}, ! Handle
  GP01 1/2 GYPSUM,                        ! Name
  Smooth,                                 ! Roughness
  0.01271,                                ! Thickness {m}
  0.16,                                   ! Conductivity {W/m-K}
  800,                                    ! Density {kg/m3}
  1090,                                   ! Specific Heat {J/kg-K}
  0.9,                                    ! Thermal Absorptance
  0.7,                                    ! Solar Absorptance
  0.5;                                    ! Visible Absorptance

OS:Material,
  {49d2202d-d803-4a53-bd0a-f5f824d557ba}, ! Handle
  GP01 1/2 GYPSUM 1,                      ! Name
  Smooth,                                 ! Roughness
  0.01271,                                ! Thickness {m}
  0.16,                                   ! Conductivity {W/m-K}
  800,                                    ! Density {kg/m3}
  1090,                                   ! Specific Heat {J/kg-K}
  0.9,                                    ! Thermal Absorptance
  0.7,                                    ! Solar Absorptance
  0.5;                                    ! Visible Absorptance

