
OS:Version,
  {ee877916-f4f4-4f32-b82e-5b9932a10ffe}, ! Handle
  0.9.3;                                  ! Version Identifier

OS:ComponentCost:LineItem,
  {ab01f2b9-ea08-4923-b1c1-b729d332fa68}, ! Handle
  90.1-2007 Res 4B Skylight without Curb, ! Name
  ,                                       ! Type
  Construction,                           ! Line Item Type
  90.1-2007 Res 4B Skylight without Curb, ! Item Name
  ,                                       ! Object End Use Key
  ,                                       ! Quantity {dimensionless}
  550.972,                                ! Material Cost {$}
  CostPerArea;                            ! Material Cost Units

OS:Construction,
  {a7a82e1a-35b9-439f-9f0a-c743ba877ba4}, ! Handle
  90.1-2007 Res 4B Skylight without Curb, ! Name
  ,                                       ! Surface Rendering Name
  {dff40c6d-0f47-4d9a-92f0-6845d79fb61f}; ! Layer 1

OS:WindowMaterial:Glazing,
  {dff40c6d-0f47-4d9a-92f0-6845d79fb61f}, ! Handle
  Theoretical Glass [161],                ! Name
  SpectralAverage,                        ! Optical Data Type
  ,                                       ! Window Glass Spectral Data Set Name
  0.003,                                  ! Thickness {m}
  0.353547,                               ! Solar Transmittance at Normal Incidence
  0.596453,                               ! Front Side Solar Reflectance at Normal Incidence
  0.596453,                               ! Back Side Solar Reflectance at Normal Incidence
  0.457336,                               ! Visible Transmittance at Normal Incidence
  0.492664,                               ! Front Side Visible Reflectance at Normal Incidence
  0.492664,                               ! Back Side Visible Reflectance at Normal Incidence
  0,                                      ! Infrared Transmittance at Normal Incidence
  0.9,                                    ! Front Side Infrared Hemispherical Emissivity
  0.9,                                    ! Back Side Infrared Hemispherical Emissivity
  0.0205762;                              ! Conductivity {W/m-K}

