
OS:Version,
  {ab904003-a271-43df-9db0-918e7d5419b4}, ! Handle
  0.9.3;                                  ! Version Identifier

OS:Material,
  {90e3d702-c21a-4966-860b-ba7d6a20017a}, ! Handle
  MAT-CC05 8 HW CONCRETE,                 ! Name
  Rough,                                  ! Roughness
  0.20321,                                ! Thickness {m}
  1.311,                                  ! Conductivity {W/m-K}
  2240,                                   ! Density {kg/m3}
  836.8,                                  ! Specific Heat {J/kg-K}
  0.9,                                    ! Thermal Absorptance
  0.7,                                    ! Solar Absorptance
  0.7;                                    ! Visible Absorptance

OS:ComponentCost:LineItem,
  {a740a89f-6c7d-4195-8bcd-361aebf26585}, ! Handle
  Title 24-2008 Nonres 2 Ext Slab Unheated - 8in Slab with Carpet, ! Name
  ,                                       ! Type
  Construction,                           ! Line Item Type
  Title 24-2008 Nonres 2 Ext Slab Unheated - 8in Slab with Carpet, ! Item Name
  ,                                       ! Object End Use Key
  ,                                       ! Quantity {dimensionless}
  45.52,                                  ! Material Cost {$}
  CostPerArea;                            ! Material Cost Units

OS:Construction,
  {1f70887a-757b-4b09-8bf3-bfb4dfbbe003}, ! Handle
  Title 24-2008 Nonres 2 Ext Slab Unheated - 8in Slab with Carpet, ! Name
  ,                                       ! Surface Rendering Name
  {90e3d702-c21a-4966-860b-ba7d6a20017a}, ! Layer 1
  {9e9e2388-ae0f-4a9d-ab69-56161ecc80d8}; ! Layer 2

OS:Material:NoMass,
  {9e9e2388-ae0f-4a9d-ab69-56161ecc80d8}, ! Handle
  CP02 CARPET PAD,                        ! Name
  VeryRough,                              ! Roughness
  0.21648,                                ! Thermal Resistance {m2-K/W}
  0.9,                                    ! Thermal Absorptance
  0.7,                                    ! Solar Absorptance
  0.8;                                    ! Visible Absorptance

