
OS:Version,
  {e8cbbc21-d7d6-4158-a548-a5ae9b75e137}, ! Handle
  0.9.3;                                  ! Version Identifier

OS:Construction,
  {ab3abd75-e321-4be0-aa2a-c84f62cc0432}, ! Handle
  90.1-1999 Res B25 Ext Wall Steel-Framed, ! Name
  ,                                       ! Surface Rendering Name
  {695a991c-1090-405e-82c6-81d462978a52}, ! Layer 1
  {7c55bb4e-d08b-4777-8329-ec992e8e8705}, ! Layer 2
  {030d7388-73f0-495d-b93f-9dc8e634708c}; ! Layer 3

OS:Material:NoMass,
  {695a991c-1090-405e-82c6-81d462978a52}, ! Handle
  MAT-SHEATH,                             ! Name
  Rough,                                  ! Roughness
  0.36256,                                ! Thermal Resistance {m2-K/W}
  0.9,                                    ! Thermal Absorptance
  0.7,                                    ! Solar Absorptance
  0.7;                                    ! Visible Absorptance

OS:Material,
  {7c55bb4e-d08b-4777-8329-ec992e8e8705}, ! Handle
  Wall Insulation [16],                   ! Name
  MediumRough,                            ! Roughness
  0.149318,                               ! Thickness {m}
  0.045,                                  ! Conductivity {W/m-K}
  265,                                    ! Density {kg/m3}
  836.8,                                  ! Specific Heat {J/kg-K}
  0.9,                                    ! Thermal Absorptance
  0.7,                                    ! Solar Absorptance
  0.7;                                    ! Visible Absorptance

OS:Material,
  {030d7388-73f0-495d-b93f-9dc8e634708c}, ! Handle
  1/2IN Gypsum,                           ! Name
  Smooth,                                 ! Roughness
  0.01271,                                ! Thickness {m}
  0.16,                                   ! Conductivity {W/m-K}
  784.9,                                  ! Density {kg/m3}
  830,                                    ! Specific Heat {J/kg-K}
  0.9,                                    ! Thermal Absorptance
  0.92,                                   ! Solar Absorptance
  0.92;                                   ! Visible Absorptance

OS:ComponentCost:LineItem,
  {8613b035-ec54-4661-abab-dec210a5f238}, ! Handle
  90.1-1999 Res B25 Ext Wall Steel-Framed, ! Name
  ,                                       ! Type
  Construction,                           ! Line Item Type
  90.1-1999 Res B25 Ext Wall Steel-Framed, ! Item Name
  ,                                       ! Object End Use Key
  ,                                       ! Quantity {dimensionless}
  100.588,                                ! Material Cost {$}
  CostPerArea;                            ! Material Cost Units

OS:ComponentData,
  {a3c10023-7634-49c6-9852-3c3911870188}, ! Handle
  Component Data 1,                       ! Name
  {5fe600c5-a0c9-4de6-912e-1055dc82acbf}, ! UUID
  {f3bb72db-e767-4b6f-98d3-6dc835f4e054}, ! Version UUID
  1363981275,                             ! Creation Timestamp
  1363981275,                             ! Version Timestamp
  {ab3abd75-e321-4be0-aa2a-c84f62cc0432}, ! Name of Object 1
  {695a991c-1090-405e-82c6-81d462978a52}, ! Name of Object 2
  {7c55bb4e-d08b-4777-8329-ec992e8e8705}, ! Name of Object 3
  {030d7388-73f0-495d-b93f-9dc8e634708c}, ! Name of Object 4
  {8613b035-ec54-4661-abab-dec210a5f238}; ! Name of Object 5

