
OS:Version,
  {f778246f-0521-48dc-994c-e118949dd282}, ! Handle
  0.9.3;                                  ! Version Identifier

OS:Material,
  {edd332c8-0f87-475b-8bff-fc9af10d23f0}, ! Handle
  Wood Siding,                            ! Name
  MediumSmooth,                           ! Roughness
  0.01,                                   ! Thickness {m}
  0.11,                                   ! Conductivity {W/m-K}
  544.62,                                 ! Density {kg/m3}
  1210,                                   ! Specific Heat {J/kg-K}
  0.9,                                    ! Thermal Absorptance
  0.78,                                   ! Solar Absorptance
  0.78;                                   ! Visible Absorptance

OS:Construction,
  {d53a78e3-44b2-4791-ab3b-50236ebba88b}, ! Handle
  90.1-2001 Res B22 Ext Wall Wood-Framed and Other, ! Name
  ,                                       ! Surface Rendering Name
  {edd332c8-0f87-475b-8bff-fc9af10d23f0}, ! Layer 1
  {5ef73e24-bab2-4485-9964-42b5c2b4d2ca}, ! Layer 2
  {8f5cead6-163f-4677-a087-92d42f57dd5c}; ! Layer 3

OS:Material,
  {5ef73e24-bab2-4485-9964-42b5c2b4d2ca}, ! Handle
  Wall Insulation [13],                   ! Name
  MediumRough,                            ! Roughness
  0.140713,                               ! Thickness {m}
  0.045,                                  ! Conductivity {W/m-K}
  265,                                    ! Density {kg/m3}
  836.8,                                  ! Specific Heat {J/kg-K}
  0.9,                                    ! Thermal Absorptance
  0.7,                                    ! Solar Absorptance
  0.7;                                    ! Visible Absorptance

OS:Material,
  {8f5cead6-163f-4677-a087-92d42f57dd5c}, ! Handle
  1/2IN Gypsum,                           ! Name
  Smooth,                                 ! Roughness
  0.01271,                                ! Thickness {m}
  0.16,                                   ! Conductivity {W/m-K}
  784.9,                                  ! Density {kg/m3}
  830,                                    ! Specific Heat {J/kg-K}
  0.9,                                    ! Thermal Absorptance
  0.92,                                   ! Solar Absorptance
  0.92;                                   ! Visible Absorptance

OS:ComponentCost:LineItem,
  {a976cfd7-4617-45b6-a668-e65355a0e51e}, ! Handle
  90.1-2001 Res B22 Ext Wall Wood-Framed and Other, ! Name
  ,                                       ! Type
  Construction,                           ! Line Item Type
  90.1-2001 Res B22 Ext Wall Wood-Framed and Other, ! Item Name
  ,                                       ! Object End Use Key
  ,                                       ! Quantity {dimensionless}
  80.638,                                 ! Material Cost {$}
  CostPerArea;                            ! Material Cost Units

