
OS:Version,
  {a4ffa5d2-f602-4666-8f02-8ff41bfe3ffa}, ! Handle
  0.9.3;                                  ! Version Identifier

OS:Construction,
  {5321b2b3-c385-4c8c-aa6c-2e9af8d071de}, ! Handle
  90.1-2001 Res B22 Ext Wall Wood-Framed and Other, ! Name
  ,                                       ! Surface Rendering Name
  {ef611d6d-1b8c-497e-8215-8edd8d7d3833}, ! Layer 1
  {98ee7e12-46e2-4e2c-b7e0-039aa2697e57}, ! Layer 2
  {56a3661d-408c-435a-ad64-a4f6de57dd0b}; ! Layer 3

OS:Material,
  {ef611d6d-1b8c-497e-8215-8edd8d7d3833}, ! Handle
  Wood Siding,                            ! Name
  MediumSmooth,                           ! Roughness
  0.01,                                   ! Thickness {m}
  0.11,                                   ! Conductivity {W/m-K}
  544.62,                                 ! Density {kg/m3}
  1210,                                   ! Specific Heat {J/kg-K}
  0.9,                                    ! Thermal Absorptance
  0.78,                                   ! Solar Absorptance
  0.78;                                   ! Visible Absorptance

OS:Material,
  {98ee7e12-46e2-4e2c-b7e0-039aa2697e57}, ! Handle
  Wall Insulation [13],                   ! Name
  MediumRough,                            ! Roughness
  0.140713,                               ! Thickness {m}
  0.045,                                  ! Conductivity {W/m-K}
  265,                                    ! Density {kg/m3}
  836.8,                                  ! Specific Heat {J/kg-K}
  0.9,                                    ! Thermal Absorptance
  0.7,                                    ! Solar Absorptance
  0.7;                                    ! Visible Absorptance

OS:Material,
  {56a3661d-408c-435a-ad64-a4f6de57dd0b}, ! Handle
  1/2IN Gypsum,                           ! Name
  Smooth,                                 ! Roughness
  0.01271,                                ! Thickness {m}
  0.16,                                   ! Conductivity {W/m-K}
  784.9,                                  ! Density {kg/m3}
  830,                                    ! Specific Heat {J/kg-K}
  0.9,                                    ! Thermal Absorptance
  0.92,                                   ! Solar Absorptance
  0.92;                                   ! Visible Absorptance

OS:ComponentCost:LineItem,
  {fecc8a7d-cbf4-4dc0-9ad9-f32688a74662}, ! Handle
  90.1-2001 Res B22 Ext Wall Wood-Framed and Other, ! Name
  ,                                       ! Type
  Construction,                           ! Line Item Type
  90.1-2001 Res B22 Ext Wall Wood-Framed and Other, ! Item Name
  ,                                       ! Object End Use Key
  ,                                       ! Quantity {dimensionless}
  80.638,                                 ! Material Cost {$}
  CostPerArea;                            ! Material Cost Units

OS:ComponentData,
  {02e50334-45d9-4bcf-8f0f-bcfe0466c3e2}, ! Handle
  Component Data 1,                       ! Name
  {2f275c27-75f8-47d8-9c87-139e2070ea18}, ! UUID
  {4052a202-c385-4933-88a6-4ccc2753dc70}, ! Version UUID
  1363981589,                             ! Creation Timestamp
  1363981589,                             ! Version Timestamp
  {5321b2b3-c385-4c8c-aa6c-2e9af8d071de}, ! Name of Object 1
  {ef611d6d-1b8c-497e-8215-8edd8d7d3833}, ! Name of Object 2
  {98ee7e12-46e2-4e2c-b7e0-039aa2697e57}, ! Name of Object 3
  {56a3661d-408c-435a-ad64-a4f6de57dd0b}, ! Name of Object 4
  {fecc8a7d-cbf4-4dc0-9ad9-f32688a74662}; ! Name of Object 5

