
OS:Version,
  {1d16dc8b-b39e-4db6-93d9-34a61cbc477b}, ! Handle
  0.9.3;                                  ! Version Identifier

OS:Construction,
  {5f59a7df-5d02-4d0d-a4c0-ca1111bfa7f6}, ! Handle
  90.1 Windows Window Fixed 2570 Vnl-ClrSue-Std-ClrSue, ! Name
  ,                                       ! Surface Rendering Name
  {ca57faaa-fb41-4566-944f-c10688e7e46b}; ! Layer 1

OS:WindowMaterial:Glazing,
  {ca57faaa-fb41-4566-944f-c10688e7e46b}, ! Handle
  Theoretical Glass [620],                ! Name
  SpectralAverage,                        ! Optical Data Type
  ,                                       ! Window Glass Spectral Data Set Name
  0.003,                                  ! Thickness {m}
  0.326547,                               ! Solar Transmittance at Normal Incidence
  0.623453,                               ! Front Side Solar Reflectance at Normal Incidence
  0.623453,                               ! Back Side Solar Reflectance at Normal Incidence
  0.519963,                               ! Visible Transmittance at Normal Incidence
  0.430037,                               ! Front Side Visible Reflectance at Normal Incidence
  0.430037,                               ! Back Side Visible Reflectance at Normal Incidence
  0,                                      ! Infrared Transmittance at Normal Incidence
  0.9,                                    ! Front Side Infrared Hemispherical Emissivity
  0.9,                                    ! Back Side Infrared Hemispherical Emissivity
  0.0088199;                              ! Conductivity {W/m-K}

OS:ComponentCost:LineItem,
  {2dcab3b9-061d-436c-ae14-8e49d8465c65}, ! Handle
  90.1 Windows Window Fixed 2570 Vnl-ClrSue-Std-ClrSue, ! Name
  ,                                       ! Type
  Construction,                           ! Line Item Type
  90.1 Windows Window Fixed 2570 Vnl-ClrSue-Std-ClrSue, ! Item Name
  ,                                       ! Object End Use Key
  ,                                       ! Quantity {dimensionless}
  0,                                      ! Material Cost {$}
  CostPerArea;                            ! Material Cost Units

OS:ComponentData,
  {24fb7faf-69ff-49cb-84ae-042fc152080b}, ! Handle
  Component Data 1,                       ! Name
  {83e7cc0b-0ffb-406a-8677-89579a65d902}, ! UUID
  {31fde297-163d-47bc-a00a-7218e1b450c1}, ! Version UUID
  1363981033,                             ! Creation Timestamp
  1363981033,                             ! Version Timestamp
  {5f59a7df-5d02-4d0d-a4c0-ca1111bfa7f6}, ! Name of Object 1
  {ca57faaa-fb41-4566-944f-c10688e7e46b}, ! Name of Object 2
  {2dcab3b9-061d-436c-ae14-8e49d8465c65}; ! Name of Object 3

