
OS:Version,
  {16d69f7d-b42b-477b-8d39-124e7c323743}, ! Handle
  0.9.3;                                  ! Version Identifier

OS:ComponentCost:LineItem,
  {0fd92947-4eea-4a3f-b449-c7c0682c2fce}, ! Handle
  90.1-2001 Res B17 Ext Wall Metal Building, ! Name
  ,                                       ! Type
  Construction,                           ! Line Item Type
  90.1-2001 Res B17 Ext Wall Metal Building, ! Item Name
  ,                                       ! Object End Use Key
  ,                                       ! Quantity {dimensionless}
  107.698,                                ! Material Cost {$}
  CostPerArea;                            ! Material Cost Units

OS:Material,
  {c0135c56-f8cc-4d63-82c3-20fbd8fba97d}, ! Handle
  Metal Siding,                           ! Name
  Smooth,                                 ! Roughness
  0.0015,                                 ! Thickness {m}
  44.96,                                  ! Conductivity {W/m-K}
  7688.86,                                ! Density {kg/m3}
  410,                                    ! Specific Heat {J/kg-K}
  0.9,                                    ! Thermal Absorptance
  0.2,                                    ! Solar Absorptance
  0.2;                                    ! Visible Absorptance

OS:Material,
  {853c5b90-8fa5-48c4-aeec-3cbdaeb02ff5}, ! Handle
  1/2IN Gypsum,                           ! Name
  Smooth,                                 ! Roughness
  0.01271,                                ! Thickness {m}
  0.16,                                   ! Conductivity {W/m-K}
  784.9,                                  ! Density {kg/m3}
  830,                                    ! Specific Heat {J/kg-K}
  0.9,                                    ! Thermal Absorptance
  0.92,                                   ! Solar Absorptance
  0.92;                                   ! Visible Absorptance

OS:Material,
  {cc80a673-dd8f-43be-acaf-ef66faf4a13e}, ! Handle
  Wall Insulation [9],                    ! Name
  MediumRough,                            ! Roughness
  0.128642,                               ! Thickness {m}
  0.045,                                  ! Conductivity {W/m-K}
  265,                                    ! Density {kg/m3}
  836.8,                                  ! Specific Heat {J/kg-K}
  0.9,                                    ! Thermal Absorptance
  0.7,                                    ! Solar Absorptance
  0.7;                                    ! Visible Absorptance

OS:Construction,
  {043c5d16-5189-4c30-8d7a-6fa20ee840d7}, ! Handle
  90.1-2001 Res B17 Ext Wall Metal Building, ! Name
  ,                                       ! Surface Rendering Name
  {c0135c56-f8cc-4d63-82c3-20fbd8fba97d}, ! Layer 1
  {cc80a673-dd8f-43be-acaf-ef66faf4a13e}, ! Layer 2
  {853c5b90-8fa5-48c4-aeec-3cbdaeb02ff5}; ! Layer 3

