
OS:Version,
  {9149ac75-a7f9-40e1-ab41-eedcb5d5c7cd}, !- Handle
  1.1.0;                                  !- Version Identifier

OS:Construction,
  {1abcd1b0-2126-4b43-91df-22155cedd33b}, !- Handle
  Dbl Clr 3mm/13mm Arg,                   !- Name
  ,                                       !- Surface Rendering Name
  {2f048cde-64ea-4926-96ce-32c4a991c1bb}, !- Layer 1
  {55616383-d28b-4d0f-8884-aab539836032}, !- Layer 2
  {2f048cde-64ea-4926-96ce-32c4a991c1bb}; !- Layer 3

OS:WindowMaterial:Glazing,
  {2f048cde-64ea-4926-96ce-32c4a991c1bb}, !- Handle
  CLEAR 3MM,                              !- Name
  SpectralAverage,                        !- Optical Data Type
  ,                                       !- Window Glass Spectral Data Set Name
  0.003,                                  !- Thickness {m}
  0.837,                                  !- Solar Transmittance at Normal Incidence
  0.075,                                  !- Front Side Solar Reflectance at Normal Incidence
  0.075,                                  !- Back Side Solar Reflectance at Normal Incidence
  0.898,                                  !- Visible Transmittance at Normal Incidence
  0.081,                                  !- Front Side Visible Reflectance at Normal Incidence
  0.081,                                  !- Back Side Visible Reflectance at Normal Incidence
  0,                                      !- Infrared Transmittance at Normal Incidence
  0.84,                                   !- Front Side Infrared Hemispherical Emissivity
  0.84,                                   !- Back Side Infrared Hemispherical Emissivity
  0.9;                                    !- Conductivity {W/m-K}

OS:WindowMaterial:Gas,
  {55616383-d28b-4d0f-8884-aab539836032}, !- Handle
  ARGON 13MM,                             !- Name
  Argon,                                  !- Gas Type
  0.0127;                                 !- Thickness {m}

