
OS:Version,
  {70409031-fca9-494d-91a7-e0c68c788c24}, ! Handle
  0.9.3;                                  ! Version Identifier

OS:ComponentCost:LineItem,
  {4a08f71c-cf2e-4328-bbc1-9465d32ab6e6}, ! Handle
  90.1-2007 Res 4B Window Metal framing entrance door, ! Name
  ,                                       ! Type
  Construction,                           ! Line Item Type
  90.1-2007 Res 4B Window Metal framing entrance door, ! Item Name
  ,                                       ! Object End Use Key
  ,                                       ! Quantity {dimensionless}
  512.02,                                 ! Material Cost {$}
  CostPerArea;                            ! Material Cost Units

OS:Construction,
  {1e203d27-76e5-4757-8ce2-e2104c089291}, ! Handle
  90.1-2007 Res 4B Window Metal framing entrance door, ! Name
  ,                                       ! Surface Rendering Name
  {4271e25b-5b9a-4a03-9c50-e988a08b8855}; ! Layer 1

OS:WindowMaterial:Glazing,
  {4271e25b-5b9a-4a03-9c50-e988a08b8855}, ! Handle
  Theoretical Glass [181],                ! Name
  SpectralAverage,                        ! Optical Data Type
  ,                                       ! Window Glass Spectral Data Set Name
  0.003,                                  ! Thickness {m}
  0.39038,                                ! Solar Transmittance at Normal Incidence
  0.55962,                                ! Front Side Solar Reflectance at Normal Incidence
  0.55962,                                ! Back Side Solar Reflectance at Normal Incidence
  0.507883,                               ! Visible Transmittance at Normal Incidence
  0.442117,                               ! Front Side Visible Reflectance at Normal Incidence
  0.442117,                               ! Back Side Visible Reflectance at Normal Incidence
  0,                                      ! Infrared Transmittance at Normal Incidence
  0.9,                                    ! Front Side Infrared Hemispherical Emissivity
  0.9,                                    ! Back Side Infrared Hemispherical Emissivity
  0.0564341;                              ! Conductivity {W/m-K}

