
OS:Version,
  {2d218a5d-697d-42a8-b4db-71ff3ee3bfbc}, ! Handle
  0.9.3;                                  ! Version Identifier

OS:Construction,
  {8803edbb-fb3d-450b-aa08-4771df8b500e}, ! Handle
  90.1-2007 Res 4B Window Metal framing entrance door, ! Name
  ,                                       ! Surface Rendering Name
  {354cb31c-1654-4e45-95d2-c30d388bbd01}; ! Layer 1

OS:WindowMaterial:Glazing,
  {354cb31c-1654-4e45-95d2-c30d388bbd01}, ! Handle
  Theoretical Glass [181],                ! Name
  SpectralAverage,                        ! Optical Data Type
  ,                                       ! Window Glass Spectral Data Set Name
  0.003,                                  ! Thickness {m}
  0.39038,                                ! Solar Transmittance at Normal Incidence
  0.55962,                                ! Front Side Solar Reflectance at Normal Incidence
  0.55962,                                ! Back Side Solar Reflectance at Normal Incidence
  0.507883,                               ! Visible Transmittance at Normal Incidence
  0.442117,                               ! Front Side Visible Reflectance at Normal Incidence
  0.442117,                               ! Back Side Visible Reflectance at Normal Incidence
  0,                                      ! Infrared Transmittance at Normal Incidence
  0.9,                                    ! Front Side Infrared Hemispherical Emissivity
  0.9,                                    ! Back Side Infrared Hemispherical Emissivity
  0.0564341;                              ! Conductivity {W/m-K}

OS:ComponentCost:LineItem,
  {4bcf27fe-30e0-4acc-87e5-fe33dc5e01a9}, ! Handle
  90.1-2007 Res 4B Window Metal framing entrance door, ! Name
  ,                                       ! Type
  Construction,                           ! Line Item Type
  90.1-2007 Res 4B Window Metal framing entrance door, ! Item Name
  ,                                       ! Object End Use Key
  ,                                       ! Quantity {dimensionless}
  512.02,                                 ! Material Cost {$}
  CostPerArea;                            ! Material Cost Units

OS:ComponentData,
  {9f231e07-202e-44c0-bc69-23336e6dfb7f}, ! Handle
  Component Data 1,                       ! Name
  {1c6116f9-fb7f-49a8-b8b7-7ac42d236925}, ! UUID
  {931d8237-2bdf-400c-b741-f97f9f82f126}, ! Version UUID
  1363981855,                             ! Creation Timestamp
  1363981855,                             ! Version Timestamp
  {8803edbb-fb3d-450b-aa08-4771df8b500e}, ! Name of Object 1
  {354cb31c-1654-4e45-95d2-c30d388bbd01}, ! Name of Object 2
  {4bcf27fe-30e0-4acc-87e5-fe33dc5e01a9}; ! Name of Object 3

