
OS:Version,
  {bf0bfc7c-5e8e-420e-a7dd-d466d9fbfec0}, ! Handle
  0.9.3;                                  ! Version Identifier

OS:Material,
  {a78fcda8-4b0f-4195-9472-31719e13a40d}, ! Handle
  1IN Stucco,                             ! Name
  Smooth,                                 ! Roughness
  0.0253,                                 ! Thickness {m}
  0.6918,                                 ! Conductivity {W/m-K}
  1858,                                   ! Density {kg/m3}
  837,                                    ! Specific Heat {J/kg-K}
  0.9,                                    ! Thermal Absorptance
  0.92,                                   ! Solar Absorptance
  0.92;                                   ! Visible Absorptance

OS:ComponentCost:LineItem,
  {38f88414-7b82-43af-86a2-a3f51ca85729}, ! Handle
  90.1-2001 Nonres B15 Ext Wall Mass,     ! Name
  ,                                       ! Type
  Construction,                           ! Line Item Type
  90.1-2001 Nonres B15 Ext Wall Mass,     ! Item Name
  ,                                       ! Object End Use Key
  ,                                       ! Quantity {dimensionless}
  58.897,                                 ! Material Cost {$}
  CostPerArea;                            ! Material Cost Units

OS:Material,
  {3dbceee3-6124-4c56-8ed1-b787dd06ee4c}, ! Handle
  1/2IN Gypsum,                           ! Name
  Smooth,                                 ! Roughness
  0.01271,                                ! Thickness {m}
  0.16,                                   ! Conductivity {W/m-K}
  784.9,                                  ! Density {kg/m3}
  830,                                    ! Specific Heat {J/kg-K}
  0.9,                                    ! Thermal Absorptance
  0.92,                                   ! Solar Absorptance
  0.92;                                   ! Visible Absorptance

OS:Material,
  {95dc91b9-77db-4704-8987-6539e76d2a3c}, ! Handle
  8IN Concrete HW,                        ! Name
  MediumRough,                            ! Roughness
  0.2033,                                 ! Thickness {m}
  1.7296,                                 ! Conductivity {W/m-K}
  2243,                                   ! Density {kg/m3}
  837,                                    ! Specific Heat {J/kg-K}
  0.9,                                    ! Thermal Absorptance
  0.65,                                   ! Solar Absorptance
  0.65;                                   ! Visible Absorptance

OS:Construction,
  {f3606244-fcc7-4baa-a0eb-48206202b11a}, ! Handle
  90.1-2001 Nonres B15 Ext Wall Mass,     ! Name
  ,                                       ! Surface Rendering Name
  {a78fcda8-4b0f-4195-9472-31719e13a40d}, ! Layer 1
  {95dc91b9-77db-4704-8987-6539e76d2a3c}, ! Layer 2
  {fadc1231-faa1-4618-9110-d5677008f3cb}, ! Layer 3
  {3dbceee3-6124-4c56-8ed1-b787dd06ee4c}; ! Layer 4

OS:Material,
  {fadc1231-faa1-4618-9110-d5677008f3cb}, ! Handle
  Wall Insulation [4],                    ! Name
  MediumRough,                            ! Roughness
  0.0338606,                              ! Thickness {m}
  0.0432,                                 ! Conductivity {W/m-K}
  91,                                     ! Density {kg/m3}
  837,                                    ! Specific Heat {J/kg-K}
  0.9,                                    ! Thermal Absorptance
  0.5,                                    ! Solar Absorptance
  0.5;                                    ! Visible Absorptance

