
OS:Version,
  {898e213c-489f-47e3-94dc-ef57db62b2ce}, ! Handle
  0.9.3;                                  ! Version Identifier

OS:Construction,
  {f496cd10-9aa9-4bbc-a4ff-11999c8b9c8d}, ! Handle
  90.1-1999 Res B18 Ext Wall Mass,        ! Name
  ,                                       ! Surface Rendering Name
  {b94ec8eb-4aaa-4493-a735-e5a1d7b3a8f3}, ! Layer 1
  {5a1b1ea7-f81d-4440-ad77-ae1906f13557}, ! Layer 2
  {e8fe1a48-4421-4835-94f7-5485dc84e546}, ! Layer 3
  {2a09d8e0-c168-4dc1-9119-e77ac09af30a}; ! Layer 4

OS:Material,
  {b94ec8eb-4aaa-4493-a735-e5a1d7b3a8f3}, ! Handle
  1IN Stucco,                             ! Name
  Smooth,                                 ! Roughness
  0.0253,                                 ! Thickness {m}
  0.6918,                                 ! Conductivity {W/m-K}
  1858,                                   ! Density {kg/m3}
  837,                                    ! Specific Heat {J/kg-K}
  0.9,                                    ! Thermal Absorptance
  0.92,                                   ! Solar Absorptance
  0.92;                                   ! Visible Absorptance

OS:Material,
  {5a1b1ea7-f81d-4440-ad77-ae1906f13557}, ! Handle
  8IN Concrete HW,                        ! Name
  MediumRough,                            ! Roughness
  0.2033,                                 ! Thickness {m}
  1.7296,                                 ! Conductivity {W/m-K}
  2243,                                   ! Density {kg/m3}
  837,                                    ! Specific Heat {J/kg-K}
  0.9,                                    ! Thermal Absorptance
  0.65,                                   ! Solar Absorptance
  0.65;                                   ! Visible Absorptance

OS:Material,
  {e8fe1a48-4421-4835-94f7-5485dc84e546}, ! Handle
  Wall Insulation [8],                    ! Name
  MediumRough,                            ! Roughness
  0.067929,                               ! Thickness {m}
  0.0432,                                 ! Conductivity {W/m-K}
  91,                                     ! Density {kg/m3}
  837,                                    ! Specific Heat {J/kg-K}
  0.9,                                    ! Thermal Absorptance
  0.5,                                    ! Solar Absorptance
  0.5;                                    ! Visible Absorptance

OS:Material,
  {2a09d8e0-c168-4dc1-9119-e77ac09af30a}, ! Handle
  1/2IN Gypsum,                           ! Name
  Smooth,                                 ! Roughness
  0.01271,                                ! Thickness {m}
  0.16,                                   ! Conductivity {W/m-K}
  784.9,                                  ! Density {kg/m3}
  830,                                    ! Specific Heat {J/kg-K}
  0.9,                                    ! Thermal Absorptance
  0.92,                                   ! Solar Absorptance
  0.92;                                   ! Visible Absorptance

OS:ComponentCost:LineItem,
  {c4c3adea-0cad-48c9-8467-7bcbd95e345d}, ! Handle
  90.1-1999 Res B18 Ext Wall Mass,        ! Name
  ,                                       ! Type
  Construction,                           ! Line Item Type
  90.1-1999 Res B18 Ext Wall Mass,        ! Item Name
  ,                                       ! Object End Use Key
  ,                                       ! Quantity {dimensionless}
  65.826,                                 ! Material Cost {$}
  CostPerArea;                            ! Material Cost Units

