
OS:Version,
  {5c15edf7-f4a7-4c0f-b52b-1124e07482c9}, ! Handle
  0.9.3;                                  ! Version Identifier

OS:ComponentCost:LineItem,
  {8214784d-ecfc-4a55-9ca3-22d36425139f}, ! Handle
  90.1-1999 Nonres B18 Roof Metal Building, ! Name
  ,                                       ! Type
  Construction,                           ! Line Item Type
  90.1-1999 Nonres B18 Roof Metal Building, ! Item Name
  ,                                       ! Object End Use Key
  ,                                       ! Quantity {dimensionless}
  38.206,                                 ! Material Cost {$}
  CostPerArea;                            ! Material Cost Units

OS:Material,
  {04800a64-78b2-497b-bcf9-1e2d4158862b}, ! Handle
  Metal Roofing,                          ! Name
  MediumSmooth,                           ! Roughness
  0.001524,                               ! Thickness {m}
  45.006,                                 ! Conductivity {W/m-K}
  7680,                                   ! Density {kg/m3}
  418.4,                                  ! Specific Heat {J/kg-K}
  0.9,                                    ! Thermal Absorptance
  0.7,                                    ! Solar Absorptance
  0.3;                                    ! Visible Absorptance

OS:Construction,
  {11d63361-5933-468a-9738-d7baa692b4dc}, ! Handle
  90.1-1999 Nonres B18 Roof Metal Building, ! Name
  ,                                       ! Surface Rendering Name
  {04800a64-78b2-497b-bcf9-1e2d4158862b}, ! Layer 1
  {bd0c1d78-217f-44b7-b03e-659624c2ad0f}; ! Layer 2

OS:Material,
  {bd0c1d78-217f-44b7-b03e-659624c2ad0f}, ! Handle
  Roof Insulation [1],                    ! Name
  MediumRough,                            ! Roughness
  0.123533,                               ! Thickness {m}
  0.049,                                  ! Conductivity {W/m-K}
  265,                                    ! Density {kg/m3}
  836.8,                                  ! Specific Heat {J/kg-K}
  0.9,                                    ! Thermal Absorptance
  0.7,                                    ! Solar Absorptance
  0.7;                                    ! Visible Absorptance

