
OS:Version,
  {949e111e-2565-4a57-b94c-da85ead43f9b}, ! Handle
  0.9.3;                                  ! Version Identifier

OS:Construction,
  {9ffee7fe-5f2a-4b54-ba13-5c0475ea6412}, ! Handle
  90.1-1999 Nonres B18 Roof Metal Building, ! Name
  ,                                       ! Surface Rendering Name
  {ab94adbc-157f-4de6-9bae-d694c0edaf88}, ! Layer 1
  {6c26b683-8226-4cd1-a75a-54bd73a84b47}; ! Layer 2

OS:Material,
  {ab94adbc-157f-4de6-9bae-d694c0edaf88}, ! Handle
  Metal Roofing,                          ! Name
  MediumSmooth,                           ! Roughness
  0.001524,                               ! Thickness {m}
  45.006,                                 ! Conductivity {W/m-K}
  7680,                                   ! Density {kg/m3}
  418.4,                                  ! Specific Heat {J/kg-K}
  0.9,                                    ! Thermal Absorptance
  0.7,                                    ! Solar Absorptance
  0.3;                                    ! Visible Absorptance

OS:Material,
  {6c26b683-8226-4cd1-a75a-54bd73a84b47}, ! Handle
  Roof Insulation [1],                    ! Name
  MediumRough,                            ! Roughness
  0.123533,                               ! Thickness {m}
  0.049,                                  ! Conductivity {W/m-K}
  265,                                    ! Density {kg/m3}
  836.8,                                  ! Specific Heat {J/kg-K}
  0.9,                                    ! Thermal Absorptance
  0.7,                                    ! Solar Absorptance
  0.7;                                    ! Visible Absorptance

OS:ComponentCost:LineItem,
  {4f1e3c23-b490-420a-80a5-4e69ec9361d9}, ! Handle
  90.1-1999 Nonres B18 Roof Metal Building, ! Name
  ,                                       ! Type
  Construction,                           ! Line Item Type
  90.1-1999 Nonres B18 Roof Metal Building, ! Item Name
  ,                                       ! Object End Use Key
  ,                                       ! Quantity {dimensionless}
  38.206,                                 ! Material Cost {$}
  CostPerArea;                            ! Material Cost Units

OS:ComponentData,
  {ee0d9847-d74f-4d50-82ef-baa3b5d9d41a}, ! Handle
  Component Data 1,                       ! Name
  {373640e8-cdc1-4de8-b8da-e3c437e3ee04}, ! UUID
  {ca4e1cfe-88b9-457f-95bf-b4abdfbabe64}, ! Version UUID
  1363981118,                             ! Creation Timestamp
  1363981118,                             ! Version Timestamp
  {9ffee7fe-5f2a-4b54-ba13-5c0475ea6412}, ! Name of Object 1
  {ab94adbc-157f-4de6-9bae-d694c0edaf88}, ! Name of Object 2
  {6c26b683-8226-4cd1-a75a-54bd73a84b47}, ! Name of Object 3
  {4f1e3c23-b490-420a-80a5-4e69ec9361d9}; ! Name of Object 4

