
OS:Version,
  {a39340bf-7d92-4bd7-b203-9100785b8c26}, ! Handle
  0.9.3;                                  ! Version Identifier

OS:Construction,
  {0f5dbae4-cb21-40ce-b24e-38fc8933deb6}, ! Handle
  90.1 Windows Window Fixed 2542 Vnl-Grn-Std-ClrSue, ! Name
  ,                                       ! Surface Rendering Name
  {804583e2-2a36-4db4-83ab-44f0477bd4a6}; ! Layer 1

OS:WindowMaterial:Glazing,
  {804583e2-2a36-4db4-83ab-44f0477bd4a6}, ! Handle
  Theoretical Glass [436],                ! Name
  SpectralAverage,                        ! Optical Data Type
  ,                                       ! Window Glass Spectral Data Set Name
  0.003,                                  ! Thickness {m}
  0.315806,                               ! Solar Transmittance at Normal Incidence
  0.634194,                               ! Front Side Solar Reflectance at Normal Incidence
  0.634194,                               ! Back Side Solar Reflectance at Normal Incidence
  0.500108,                               ! Visible Transmittance at Normal Incidence
  0.449892,                               ! Front Side Visible Reflectance at Normal Incidence
  0.449892,                               ! Back Side Visible Reflectance at Normal Incidence
  0,                                      ! Infrared Transmittance at Normal Incidence
  0.9,                                    ! Front Side Infrared Hemispherical Emissivity
  0.9,                                    ! Back Side Infrared Hemispherical Emissivity
  0.00919029;                             ! Conductivity {W/m-K}

OS:ComponentCost:LineItem,
  {aaef120c-7ef5-476a-8d2c-338a95d2d902}, ! Handle
  90.1 Windows Window Fixed 2542 Vnl-Grn-Std-ClrSue, ! Name
  ,                                       ! Type
  Construction,                           ! Line Item Type
  90.1 Windows Window Fixed 2542 Vnl-Grn-Std-ClrSue, ! Item Name
  ,                                       ! Object End Use Key
  ,                                       ! Quantity {dimensionless}
  0,                                      ! Material Cost {$}
  CostPerArea;                            ! Material Cost Units

OS:ComponentData,
  {8ab759be-dcfa-4224-b2ec-f5825b1e4113}, ! Handle
  Component Data 1,                       ! Name
  {487434a3-04c6-4dc9-85ad-cb68a19acf7b}, ! UUID
  {4511df28-48ec-46d4-a49d-ab82d7b30c6d}, ! Version UUID
  1363981018,                             ! Creation Timestamp
  1363981018,                             ! Version Timestamp
  {0f5dbae4-cb21-40ce-b24e-38fc8933deb6}, ! Name of Object 1
  {804583e2-2a36-4db4-83ab-44f0477bd4a6}, ! Name of Object 2
  {aaef120c-7ef5-476a-8d2c-338a95d2d902}; ! Name of Object 3

