
OS:Version,
  {f344a489-06ef-4570-a16a-8f007dbf7686}, ! Handle
  0.9.3;                                  ! Version Identifier

OS:WindowMaterial:Glazing,
  {6330af9f-d0db-4f1b-b6fc-fa80f52d4ee5}, ! Handle
  Theoretical Glass [436],                ! Name
  SpectralAverage,                        ! Optical Data Type
  ,                                       ! Window Glass Spectral Data Set Name
  0.003,                                  ! Thickness {m}
  0.315806,                               ! Solar Transmittance at Normal Incidence
  0.634194,                               ! Front Side Solar Reflectance at Normal Incidence
  0.634194,                               ! Back Side Solar Reflectance at Normal Incidence
  0.500108,                               ! Visible Transmittance at Normal Incidence
  0.449892,                               ! Front Side Visible Reflectance at Normal Incidence
  0.449892,                               ! Back Side Visible Reflectance at Normal Incidence
  0,                                      ! Infrared Transmittance at Normal Incidence
  0.9,                                    ! Front Side Infrared Hemispherical Emissivity
  0.9,                                    ! Back Side Infrared Hemispherical Emissivity
  0.00919029;                             ! Conductivity {W/m-K}

OS:Construction,
  {3a5d49f2-c999-4ede-afbf-e0817a1612d0}, ! Handle
  90.1 Windows Window Fixed 2542 Vnl-Grn-Std-ClrSue, ! Name
  ,                                       ! Surface Rendering Name
  {6330af9f-d0db-4f1b-b6fc-fa80f52d4ee5}; ! Layer 1

OS:ComponentCost:LineItem,
  {92dabb70-a10b-4035-9060-6b446e813cdb}, ! Handle
  90.1 Windows Window Fixed 2542 Vnl-Grn-Std-ClrSue, ! Name
  ,                                       ! Type
  Construction,                           ! Line Item Type
  90.1 Windows Window Fixed 2542 Vnl-Grn-Std-ClrSue, ! Item Name
  ,                                       ! Object End Use Key
  ,                                       ! Quantity {dimensionless}
  0,                                      ! Material Cost {$}
  CostPerArea;                            ! Material Cost Units

