
OS:Version,
  {397dadbc-d610-4df5-875b-6506112e8f13}, ! Handle
  0.9.3;                                  ! Version Identifier

OS:Material,
  {1ba21d17-e01e-43a7-bd36-c3364bba5708}, ! Handle
  METAL Door Medium 18Ga_1,               ! Name
  Smooth,                                 ! Roughness
  0.0013106,                              ! Thickness {m}
  45.3149,                                ! Conductivity {W/m-K}
  7833.03,                                ! Density {kg/m3}
  502.08,                                 ! Specific Heat {J/kg-K}
  0.8,                                    ! Thermal Absorptance
  0.5,                                    ! Solar Absorptance
  0.5;                                    ! Visible Absorptance

OS:Construction,
  {551ed3fd-8197-462b-93f7-da75ce210028}, ! Handle
  90.1-2004 Nonres 8A Door Swinging,      ! Name
  ,                                       ! Surface Rendering Name
  {1ba21d17-e01e-43a7-bd36-c3364bba5708}, ! Layer 1
  {c94d672d-484f-4c1f-b25e-c4daea22d209}, ! Layer 2
  {91aab375-e7de-429c-b272-fbc14a8adefc}; ! Layer 3

OS:Material:NoMass,
  {c94d672d-484f-4c1f-b25e-c4daea22d209}, ! Handle
  AIR,                                    ! Name
  Smooth,                                 ! Roughness
  0.251489,                               ! Thermal Resistance {m2-K/W}
  0.8,                                    ! Thermal Absorptance
  0.5,                                    ! Solar Absorptance
  0.5;                                    ! Visible Absorptance

OS:Material,
  {91aab375-e7de-429c-b272-fbc14a8adefc}, ! Handle
  METAL Door Medium 18Ga_2,               ! Name
  Smooth,                                 ! Roughness
  0.0013106,                              ! Thickness {m}
  45.3149,                                ! Conductivity {W/m-K}
  7833.03,                                ! Density {kg/m3}
  502.08,                                 ! Specific Heat {J/kg-K}
  0.8,                                    ! Thermal Absorptance
  0.5,                                    ! Solar Absorptance
  0.5;                                    ! Visible Absorptance

OS:ComponentCost:LineItem,
  {7b24c917-256f-4937-930f-e57965f1c62c}, ! Handle
  90.1-2004 Nonres 8A Door Swinging,      ! Name
  ,                                       ! Type
  Construction,                           ! Line Item Type
  90.1-2004 Nonres 8A Door Swinging,      ! Item Name
  ,                                       ! Object End Use Key
  ,                                       ! Quantity {dimensionless}
  0,                                      ! Material Cost {$}
  CostPerArea;                            ! Material Cost Units

