
OS:Version,
  {e60f1706-c4e7-482e-b400-ae94e32a4936}, ! Handle
  0.9.3;                                  ! Version Identifier

OS:ComponentCost:LineItem,
  {1754ff1c-0bd3-4f3e-b3c3-388ecaaf3b0c}, ! Handle
  90.1-1999 Nonres B22 Roof Metal Building, ! Name
  ,                                       ! Type
  Construction,                           ! Line Item Type
  90.1-1999 Nonres B22 Roof Metal Building, ! Item Name
  ,                                       ! Object End Use Key
  ,                                       ! Quantity {dimensionless}
  38.206,                                 ! Material Cost {$}
  CostPerArea;                            ! Material Cost Units

OS:Material,
  {ca1c0793-1316-4bbd-a6a6-70449858bc37}, ! Handle
  Metal Roofing,                          ! Name
  MediumSmooth,                           ! Roughness
  0.001524,                               ! Thickness {m}
  45.006,                                 ! Conductivity {W/m-K}
  7680,                                   ! Density {kg/m3}
  418.4,                                  ! Specific Heat {J/kg-K}
  0.9,                                    ! Thermal Absorptance
  0.7,                                    ! Solar Absorptance
  0.3;                                    ! Visible Absorptance

OS:Construction,
  {ecf18766-f689-4e07-a116-b8f919b809fd}, ! Handle
  90.1-1999 Nonres B22 Roof Metal Building, ! Name
  ,                                       ! Surface Rendering Name
  {ca1c0793-1316-4bbd-a6a6-70449858bc37}, ! Layer 1
  {0686fcb5-0eef-411f-b6bb-495b69ba5004}; ! Layer 2

OS:Material,
  {0686fcb5-0eef-411f-b6bb-495b69ba5004}, ! Handle
  Roof Insulation [1],                    ! Name
  MediumRough,                            ! Roughness
  0.123533,                               ! Thickness {m}
  0.049,                                  ! Conductivity {W/m-K}
  265,                                    ! Density {kg/m3}
  836.8,                                  ! Specific Heat {J/kg-K}
  0.9,                                    ! Thermal Absorptance
  0.7,                                    ! Solar Absorptance
  0.7;                                    ! Visible Absorptance

