
OS:Version,
  {16c027d2-6f18-4c37-b8e1-fd9a84b55519}, ! Handle
  0.9.3;                                  ! Version Identifier

OS:Material:NoMass,
  {7fe8b434-e6a6-4a43-811c-88d6eeb85b90}, ! Handle
  CP02 CARPET PAD,                        ! Name
  VeryRough,                              ! Roughness
  0.21648,                                ! Thermal Resistance {m2-K/W}
  0.9,                                    ! Thermal Absorptance
  0.7,                                    ! Solar Absorptance
  0.8;                                    ! Visible Absorptance

OS:ComponentCost:LineItem,
  {bb444574-0191-418b-80fe-8ab8533f0908}, ! Handle
  90.1-1999 Nonres B22 Ext Slab Unheated - 8in Slab with Carpet, ! Name
  ,                                       ! Type
  Construction,                           ! Line Item Type
  90.1-1999 Nonres B22 Ext Slab Unheated - 8in Slab with Carpet, ! Item Name
  ,                                       ! Object End Use Key
  ,                                       ! Quantity {dimensionless}
  45.52,                                  ! Material Cost {$}
  CostPerArea;                            ! Material Cost Units

OS:Material,
  {7a85d857-1b48-4ee5-81c2-acf4aec2c777}, ! Handle
  MAT-CC05 8 HW CONCRETE,                 ! Name
  Rough,                                  ! Roughness
  0.20321,                                ! Thickness {m}
  1.311,                                  ! Conductivity {W/m-K}
  2240,                                   ! Density {kg/m3}
  836.8,                                  ! Specific Heat {J/kg-K}
  0.9,                                    ! Thermal Absorptance
  0.7,                                    ! Solar Absorptance
  0.7;                                    ! Visible Absorptance

OS:Construction,
  {90919973-c061-4765-979b-c969929ea6c0}, ! Handle
  90.1-1999 Nonres B22 Ext Slab Unheated - 8in Slab with Carpet, ! Name
  ,                                       ! Surface Rendering Name
  {7a85d857-1b48-4ee5-81c2-acf4aec2c777}, ! Layer 1
  {7fe8b434-e6a6-4a43-811c-88d6eeb85b90}; ! Layer 2

