
OS:Version,
  {61156ba7-52df-417b-bf85-81f20dcc0b10}, ! Handle
  0.9.3;                                  ! Version Identifier

OS:ComponentCost:LineItem,
  {e1c3230f-c2da-4201-86bb-3c2ec3ed5f03}, ! Handle
  90.1-2007 Nonres 2A Window Metal framing curtainwall-storefront, ! Name
  ,                                       ! Type
  Construction,                           ! Line Item Type
  90.1-2007 Nonres 2A Window Metal framing curtainwall-storefront, ! Item Name
  ,                                       ! Object End Use Key
  ,                                       ! Quantity {dimensionless}
  600.037,                                ! Material Cost {$}
  CostPerArea;                            ! Material Cost Units

OS:Construction,
  {60af3b9a-68b0-4481-bacb-575f18b7de69}, ! Handle
  90.1-2007 Nonres 2A Window Metal framing curtainwall-storefront, ! Name
  ,                                       ! Surface Rendering Name
  {782f8241-7ff9-42cf-8310-80d9099d6e27}; ! Layer 1

OS:WindowMaterial:Glazing,
  {782f8241-7ff9-42cf-8310-80d9099d6e27}, ! Handle
  Theoretical Glass [171],                ! Name
  SpectralAverage,                        ! Optical Data Type
  ,                                       ! Window Glass Spectral Data Set Name
  0.003,                                  ! Thickness {m}
  0.242764,                               ! Solar Transmittance at Normal Incidence
  0.707236,                               ! Front Side Solar Reflectance at Normal Incidence
  0.707236,                               ! Back Side Solar Reflectance at Normal Incidence
  0.251212,                               ! Visible Transmittance at Normal Incidence
  0.698788,                               ! Front Side Visible Reflectance at Normal Incidence
  0.698788,                               ! Back Side Visible Reflectance at Normal Incidence
  0,                                      ! Infrared Transmittance at Normal Incidence
  0.9,                                    ! Front Side Infrared Hemispherical Emissivity
  0.9,                                    ! Back Side Infrared Hemispherical Emissivity
  0.0313721;                              ! Conductivity {W/m-K}

