
OS:Version,
  {6abba1ff-c2ab-466b-9079-ac4944fba218}, ! Handle
  0.9.3;                                  ! Version Identifier

OS:Construction,
  {b366a302-902a-4592-8d93-4f6168a96614}, ! Handle
  90.1-2007 Res 4B Int Wall,              ! Name
  ,                                       ! Surface Rendering Name
  {09a07aec-52ba-4ef7-bcfa-f8233ce2433e}, ! Layer 1
  {09a07aec-52ba-4ef7-bcfa-f8233ce2433e}; ! Layer 2

OS:Material,
  {09a07aec-52ba-4ef7-bcfa-f8233ce2433e}, ! Handle
  GP01 1/2 GYPSUM,                        ! Name
  Smooth,                                 ! Roughness
  0.01271,                                ! Thickness {m}
  0.16,                                   ! Conductivity {W/m-K}
  800,                                    ! Density {kg/m3}
  1090,                                   ! Specific Heat {J/kg-K}
  0.9,                                    ! Thermal Absorptance
  0.7,                                    ! Solar Absorptance
  0.5;                                    ! Visible Absorptance

OS:ComponentCost:LineItem,
  {36e6fbb0-29b4-45a7-b501-7d813cbb6b39}, ! Handle
  90.1-2007 Res 4B Int Wall,              ! Name
  ,                                       ! Type
  Construction,                           ! Line Item Type
  90.1-2007 Res 4B Int Wall,              ! Item Name
  ,                                       ! Object End Use Key
  ,                                       ! Quantity {dimensionless}
  0,                                      ! Material Cost {$}
  CostPerArea;                            ! Material Cost Units

OS:Material,
  {47433ffe-eed3-4bd2-9c44-b8d38c4b6a5f}, ! Handle
  GP01 1/2 GYPSUM 1,                      ! Name
  Smooth,                                 ! Roughness
  0.01271,                                ! Thickness {m}
  0.16,                                   ! Conductivity {W/m-K}
  800,                                    ! Density {kg/m3}
  1090,                                   ! Specific Heat {J/kg-K}
  0.9,                                    ! Thermal Absorptance
  0.7,                                    ! Solar Absorptance
  0.5;                                    ! Visible Absorptance

