
OS:Version,
  {a8d9c633-92aa-4886-8ea7-a84cb5956499}, ! Handle
  0.9.3;                                  ! Version Identifier

OS:Material,
  {8d0c3784-9d89-4fab-a787-a4662a652ed2}, ! Handle
  AtticFloor Insulation [1],              ! Name
  MediumRough,                            ! Roughness
  0.303719,                               ! Thickness {m}
  0.049,                                  ! Conductivity {W/m-K}
  265,                                    ! Density {kg/m3}
  836.8,                                  ! Specific Heat {J/kg-K}
  0.9,                                    ! Thermal Absorptance
  0.7,                                    ! Solar Absorptance
  0.7;                                    ! Visible Absorptance

OS:Construction,
  {eee79f11-3b56-4f8a-96b7-6079056b6e5c}, ! Handle
  90.1-2004 Res 3A Attic Floor,           ! Name
  ,                                       ! Surface Rendering Name
  {be1eaca9-54d9-4ad5-be59-7d8581476183}, ! Layer 1
  {8d0c3784-9d89-4fab-a787-a4662a652ed2}, ! Layer 2
  {2a45c450-8fdb-443a-9c25-21d01a0dfaa4}; ! Layer 3

OS:Material,
  {be1eaca9-54d9-4ad5-be59-7d8581476183}, ! Handle
  1/2IN Gypsum Top,                       ! Name
  Smooth,                                 ! Roughness
  0.01271,                                ! Thickness {m}
  0.16,                                   ! Conductivity {W/m-K}
  784.9,                                  ! Density {kg/m3}
  830,                                    ! Specific Heat {J/kg-K}
  0.9,                                    ! Thermal Absorptance
  0.92,                                   ! Solar Absorptance
  0.92;                                   ! Visible Absorptance

OS:Material,
  {2a45c450-8fdb-443a-9c25-21d01a0dfaa4}, ! Handle
  1/2IN Gypsum Bottom,                    ! Name
  Smooth,                                 ! Roughness
  0.01271,                                ! Thickness {m}
  0.16,                                   ! Conductivity {W/m-K}
  784.9,                                  ! Density {kg/m3}
  830,                                    ! Specific Heat {J/kg-K}
  0.9,                                    ! Thermal Absorptance
  0.92,                                   ! Solar Absorptance
  0.92;                                   ! Visible Absorptance

OS:ComponentCost:LineItem,
  {bf4f48a4-5727-4aa1-834a-3386a2c3e0ad}, ! Handle
  90.1-2004 Res 3A Attic Floor,           ! Name
  ,                                       ! Type
  Construction,                           ! Line Item Type
  90.1-2004 Res 3A Attic Floor,           ! Item Name
  ,                                       ! Object End Use Key
  ,                                       ! Quantity {dimensionless}
  35.009,                                 ! Material Cost {$}
  CostPerArea;                            ! Material Cost Units

