
! 
OS:Version,
  {8503bb35-3288-4176-9c41-752f3d976c4b}, !- Handle
  1.13.0;                                 !- Version Identifier


! 
OS:Material,
  {4d755ae9-c76c-4515-8a56-361cdcd27b8d}, !- Handle
  Aislamiento: SATE
WEBER: weber.therm placa EPS grafito 80 (0.080 m)
R: 2.5 m2K/W,                             !- Name
  MediumRough,                                 !- Roughness
  0.08,                                    !- Thickness {m}
  0.032,                                    !- Conductivity {W/m-K}
  15.0,                                    !- Density {kg/m3}
  800.0,                                    !- Specific Heat {J/kg-K}
  0.9,                                    !- Thermal Absorptance
  0.6,                                    !- Solar Absorptance
  0.6;                                    !- Visible Absorptance

