
OS:Version,
  {3f221743-c50d-4acc-98f2-8f3d847dfbad}, ! Handle
  0.9.3;                                  ! Version Identifier

OS:Material,
  {27fd5978-176d-4503-b6b5-4596d1cd6f0e}, ! Handle
  Wall Insulation [158],                  ! Name
  MediumRough,                            ! Roughness
  0.0509,                                 ! Thickness {m}
  0.0432,                                 ! Conductivity {W/m-K}
  91,                                     ! Density {kg/m3}
  837,                                    ! Specific Heat {J/kg-K}
  0.9,                                    ! Thermal Absorptance
  0.5,                                    ! Solar Absorptance
  0.5;                                    ! Visible Absorptance

OS:Material,
  {d98b7df5-9632-4973-b72a-8c4f75b209bf}, ! Handle
  8IN Concrete HW,                        ! Name
  MediumRough,                            ! Roughness
  0.2033,                                 ! Thickness {m}
  1.7296,                                 ! Conductivity {W/m-K}
  2243,                                   ! Density {kg/m3}
  837,                                    ! Specific Heat {J/kg-K}
  0.9,                                    ! Thermal Absorptance
  0.65,                                   ! Solar Absorptance
  0.65;                                   ! Visible Absorptance

OS:Material,
  {2ffda776-81fd-4edf-a603-81564837fa55}, ! Handle
  1/2IN Gypsum,                           ! Name
  Smooth,                                 ! Roughness
  0.01271,                                ! Thickness {m}
  0.16,                                   ! Conductivity {W/m-K}
  784.9,                                  ! Density {kg/m3}
  830,                                    ! Specific Heat {J/kg-K}
  0.9,                                    ! Thermal Absorptance
  0.92,                                   ! Solar Absorptance
  0.92;                                   ! Visible Absorptance

OS:Material,
  {99b40cbe-3491-478b-a64c-042435e54a74}, ! Handle
  1IN Stucco,                             ! Name
  Smooth,                                 ! Roughness
  0.0253,                                 ! Thickness {m}
  0.6918,                                 ! Conductivity {W/m-K}
  1858,                                   ! Density {kg/m3}
  837,                                    ! Specific Heat {J/kg-K}
  0.9,                                    ! Thermal Absorptance
  0.92,                                   ! Solar Absorptance
  0.92;                                   ! Visible Absorptance

OS:Construction,
  {12111904-be11-47ab-999f-cb141ea72a97}, ! Handle
  Title 24-2008 Nonres 2 Ext Wall Mass,   ! Name
  ,                                       ! Surface Rendering Name
  {99b40cbe-3491-478b-a64c-042435e54a74}, ! Layer 1
  {d98b7df5-9632-4973-b72a-8c4f75b209bf}, ! Layer 2
  {27fd5978-176d-4503-b6b5-4596d1cd6f0e}, ! Layer 3
  {2ffda776-81fd-4edf-a603-81564837fa55}; ! Layer 4

OS:ComponentCost:LineItem,
  {4c0add1a-1efc-4e35-9a14-872a04812dd3}, ! Handle
  Title 24-2008 Nonres 2 Ext Wall Mass,   ! Name
  ,                                       ! Type
  Construction,                           ! Line Item Type
  Title 24-2008 Nonres 2 Ext Wall Mass,   ! Item Name
  ,                                       ! Object End Use Key
  ,                                       ! Quantity {dimensionless}
  211.895,                                ! Material Cost {$}
  CostPerArea;                            ! Material Cost Units

