
OS:Version,
  {e4b0385b-1fd0-4ca6-b866-67c953f718ab}, ! Handle
  0.9.3;                                  ! Version Identifier

OS:Construction,
  {d049d06a-a378-43b4-975c-8ece2bbb659e}, ! Handle
  Title 24-2005 Nonres 2 Window Fixed,    ! Name
  ,                                       ! Surface Rendering Name
  {2ab6889a-e3cb-40ce-af7d-0925c433f443}; ! Layer 1

OS:WindowMaterial:Glazing,
  {2ab6889a-e3cb-40ce-af7d-0925c433f443}, ! Handle
  Theoretical Glass [641],                ! Name
  SpectralAverage,                        ! Optical Data Type
  ,                                       ! Window Glass Spectral Data Set Name
  0.003,                                  ! Thickness {m}
  0.463638,                               ! Solar Transmittance at Normal Incidence
  0.486362,                               ! Front Side Solar Reflectance at Normal Incidence
  0.486362,                               ! Back Side Solar Reflectance at Normal Incidence
  0.599285,                               ! Visible Transmittance at Normal Incidence
  0.350715,                               ! Front Side Visible Reflectance at Normal Incidence
  0.350715,                               ! Back Side Visible Reflectance at Normal Incidence
  0,                                      ! Infrared Transmittance at Normal Incidence
  0.9,                                    ! Front Side Infrared Hemispherical Emissivity
  0.9,                                    ! Back Side Infrared Hemispherical Emissivity
  0.0139741;                              ! Conductivity {W/m-K}

OS:ComponentCost:LineItem,
  {36b56ab2-51f5-45db-949c-7a761d9e92cd}, ! Handle
  Title 24-2005 Nonres 2 Window Fixed,    ! Name
  ,                                       ! Type
  Construction,                           ! Line Item Type
  Title 24-2005 Nonres 2 Window Fixed,    ! Item Name
  ,                                       ! Object End Use Key
  ,                                       ! Quantity {dimensionless}
  444.232,                                ! Material Cost {$}
  CostPerArea;                            ! Material Cost Units

OS:ComponentData,
  {81b35c24-d8fe-49a6-940b-d71a254b31e5}, ! Handle
  Component Data 1,                       ! Name
  {5427cedd-0cea-4a3f-9951-ee2423e1b916}, ! UUID
  {e15cf16b-989b-4440-8424-be9b0ba82ac4}, ! Version UUID
  1363981976,                             ! Creation Timestamp
  1363981976,                             ! Version Timestamp
  {d049d06a-a378-43b4-975c-8ece2bbb659e}, ! Name of Object 1
  {2ab6889a-e3cb-40ce-af7d-0925c433f443}, ! Name of Object 2
  {36b56ab2-51f5-45db-949c-7a761d9e92cd}; ! Name of Object 3

