
OS:Version,
  {4fe9a2e7-9630-4f73-9444-9e3e53d0e1dd}, ! Handle
  0.9.3;                                  ! Version Identifier

OS:Material:NoMass,
  {cc39b826-7a8c-41be-9583-515dd6649b2a}, ! Handle
  AIR [5],                                ! Name
  Smooth,                                 ! Roughness
  0.440339,                               ! Thermal Resistance {m2-K/W}
  0.8,                                    ! Thermal Absorptance
  0.5,                                    ! Solar Absorptance
  0.5;                                    ! Visible Absorptance

OS:ComponentCost:LineItem,
  {0783a076-00e2-485d-b8b1-fef8039c1cc7}, ! Handle
  189.1-2009 Nonres 5B Door Non-Swinging, ! Name
  ,                                       ! Type
  Construction,                           ! Line Item Type
  189.1-2009 Nonres 5B Door Non-Swinging, ! Item Name
  ,                                       ! Object End Use Key
  ,                                       ! Quantity {dimensionless}
  0,                                      ! Material Cost {$}
  CostPerArea;                            ! Material Cost Units

OS:Construction,
  {d2eb367b-f57f-4d84-8fa2-53658f94856f}, ! Handle
  189.1-2009 Nonres 5B Door Non-Swinging, ! Name
  ,                                       ! Surface Rendering Name
  {1501dc6c-0dae-4fdc-afb1-20de18734cce}, ! Layer 1
  {cc39b826-7a8c-41be-9583-515dd6649b2a}, ! Layer 2
  {1df23d5c-8649-4ecc-af92-8fe162acffbd}; ! Layer 3

OS:Material,
  {1501dc6c-0dae-4fdc-afb1-20de18734cce}, ! Handle
  METAL Door Medium 18Ga,                 ! Name
  Smooth,                                 ! Roughness
  0.0013106,                              ! Thickness {m}
  45.3149,                                ! Conductivity {W/m-K}
  7833.03,                                ! Density {kg/m3}
  502.08,                                 ! Specific Heat {J/kg-K}
  0.8,                                    ! Thermal Absorptance
  0.5,                                    ! Solar Absorptance
  0.5;                                    ! Visible Absorptance

OS:Material,
  {1df23d5c-8649-4ecc-af92-8fe162acffbd}, ! Handle
  METAL Door Medium 18Ga_2,               ! Name
  Smooth,                                 ! Roughness
  0.0013106,                              ! Thickness {m}
  45.3149,                                ! Conductivity {W/m-K}
  7833.03,                                ! Density {kg/m3}
  502.08,                                 ! Specific Heat {J/kg-K}
  0.8,                                    ! Thermal Absorptance
  0.5,                                    ! Solar Absorptance
  0.5;                                    ! Visible Absorptance

