
OS:Version,
  {4fe2fd3d-2db1-4efa-ada0-c03eb2e10973}, ! Handle
  0.9.3;                                  ! Version Identifier

OS:Construction,
  {8b752c51-4ddb-45da-b959-1c795fad44e7}, ! Handle
  189.1-2009 Nonres 7A Ext Slab Unheated - 8in Slab with Carpet, ! Name
  ,                                       ! Surface Rendering Name
  {ef4eb7fc-7b4d-4792-aa2f-cc9f78d95180}, ! Layer 1
  {271fbdeb-610c-4f8c-9cf5-a670a60471ee}; ! Layer 2

OS:Material,
  {ef4eb7fc-7b4d-4792-aa2f-cc9f78d95180}, ! Handle
  MAT-CC05 8 HW CONCRETE,                 ! Name
  Rough,                                  ! Roughness
  0.20321,                                ! Thickness {m}
  1.311,                                  ! Conductivity {W/m-K}
  2240,                                   ! Density {kg/m3}
  836.8,                                  ! Specific Heat {J/kg-K}
  0.9,                                    ! Thermal Absorptance
  0.7,                                    ! Solar Absorptance
  0.7;                                    ! Visible Absorptance

OS:Material:NoMass,
  {271fbdeb-610c-4f8c-9cf5-a670a60471ee}, ! Handle
  CP02 CARPET PAD,                        ! Name
  VeryRough,                              ! Roughness
  0.21648,                                ! Thermal Resistance {m2-K/W}
  0.9,                                    ! Thermal Absorptance
  0.7,                                    ! Solar Absorptance
  0.8;                                    ! Visible Absorptance

OS:ComponentCost:LineItem,
  {e02cb16d-cfd5-4113-814b-62c80aeb64a7}, ! Handle
  189.1-2009 Nonres 7A Ext Slab Unheated - 8in Slab with Carpet, ! Name
  ,                                       ! Type
  Construction,                           ! Line Item Type
  189.1-2009 Nonres 7A Ext Slab Unheated - 8in Slab with Carpet, ! Item Name
  ,                                       ! Object End Use Key
  ,                                       ! Quantity {dimensionless}
  45.52,                                  ! Material Cost {$}
  CostPerArea;                            ! Material Cost Units

OS:ComponentData,
  {d248fc84-d218-4bf9-8130-9889eedf9e27}, ! Handle
  Component Data 1,                       ! Name
  {b1c68ed0-cfe0-4315-a115-957635859a1f}, ! UUID
  {8ec356e6-248e-4308-9586-cc666f34588f}, ! Version UUID
  1363980951,                             ! Creation Timestamp
  1363980951,                             ! Version Timestamp
  {8b752c51-4ddb-45da-b959-1c795fad44e7}, ! Name of Object 1
  {ef4eb7fc-7b4d-4792-aa2f-cc9f78d95180}, ! Name of Object 2
  {271fbdeb-610c-4f8c-9cf5-a670a60471ee}, ! Name of Object 3
  {e02cb16d-cfd5-4113-814b-62c80aeb64a7}; ! Name of Object 4

