
OS:Version,
  {c12f858a-7f19-4f8f-8ff9-2a6625eab2d1}, ! Handle
  0.9.3;                                  ! Version Identifier

OS:Material:NoMass,
  {1b314e06-b08f-43be-b9c7-a35d297515a9}, ! Handle
  CP02 CARPET PAD,                        ! Name
  VeryRough,                              ! Roughness
  0.21648,                                ! Thermal Resistance {m2-K/W}
  0.9,                                    ! Thermal Absorptance
  0.7,                                    ! Solar Absorptance
  0.8;                                    ! Visible Absorptance

OS:Material,
  {2967a4f8-dc28-4bec-a469-56c6027706ca}, ! Handle
  MAT-CC05 8 HW CONCRETE,                 ! Name
  Rough,                                  ! Roughness
  0.20321,                                ! Thickness {m}
  1.311,                                  ! Conductivity {W/m-K}
  2240,                                   ! Density {kg/m3}
  836.8,                                  ! Specific Heat {J/kg-K}
  0.9,                                    ! Thermal Absorptance
  0.7,                                    ! Solar Absorptance
  0.7;                                    ! Visible Absorptance

OS:ComponentCost:LineItem,
  {35fa6781-50ec-4a2a-bfd5-8f6cfcef50f9}, ! Handle
  189.1-2009 Nonres 7A Ext Slab Unheated - 8in Slab with Carpet, ! Name
  ,                                       ! Type
  Construction,                           ! Line Item Type
  189.1-2009 Nonres 7A Ext Slab Unheated - 8in Slab with Carpet, ! Item Name
  ,                                       ! Object End Use Key
  ,                                       ! Quantity {dimensionless}
  45.52,                                  ! Material Cost {$}
  CostPerArea;                            ! Material Cost Units

OS:Construction,
  {eba525b3-cb16-419d-8421-09278ccaddb9}, ! Handle
  189.1-2009 Nonres 7A Ext Slab Unheated - 8in Slab with Carpet, ! Name
  ,                                       ! Surface Rendering Name
  {2967a4f8-dc28-4bec-a469-56c6027706ca}, ! Layer 1
  {1b314e06-b08f-43be-b9c7-a35d297515a9}; ! Layer 2

