
OS:Version,
  {68fa273a-c46e-43d9-a2c4-35be3b4d1b48}, ! Handle
  0.9.3;                                  ! Version Identifier

OS:Construction,
  {74e54d5d-b5d0-407f-a0d9-86af31845ddb}, ! Handle
  90.1 Windows Window Fixed 2134 Mtl-ClrMpr-Std-ClrSpe, ! Name
  ,                                       ! Surface Rendering Name
  {ec0f4fd0-5a5c-47f8-a0c0-fccaebc246f0}; ! Layer 1

OS:WindowMaterial:Glazing,
  {ec0f4fd0-5a5c-47f8-a0c0-fccaebc246f0}, ! Handle
  Theoretical Glass [342],                ! Name
  SpectralAverage,                        ! Optical Data Type
  ,                                       ! Window Glass Spectral Data Set Name
  0.003,                                  ! Thickness {m}
  0.412869,                               ! Solar Transmittance at Normal Incidence
  0.537131,                               ! Front Side Solar Reflectance at Normal Incidence
  0.537131,                               ! Back Side Solar Reflectance at Normal Incidence
  0.390045,                               ! Visible Transmittance at Normal Incidence
  0.559955,                               ! Front Side Visible Reflectance at Normal Incidence
  0.559955,                               ! Back Side Visible Reflectance at Normal Incidence
  0,                                      ! Infrared Transmittance at Normal Incidence
  0.9,                                    ! Front Side Infrared Hemispherical Emissivity
  0.9,                                    ! Back Side Infrared Hemispherical Emissivity
  0.0213046;                              ! Conductivity {W/m-K}

OS:ComponentCost:LineItem,
  {f7e7acd1-7cc1-409b-ac7c-b2978a4a3859}, ! Handle
  90.1 Windows Window Fixed 2134 Mtl-ClrMpr-Std-ClrSpe, ! Name
  ,                                       ! Type
  Construction,                           ! Line Item Type
  90.1 Windows Window Fixed 2134 Mtl-ClrMpr-Std-ClrSpe, ! Item Name
  ,                                       ! Object End Use Key
  ,                                       ! Quantity {dimensionless}
  0,                                      ! Material Cost {$}
  CostPerArea;                            ! Material Cost Units

