
OS:Version,
  {5953b902-b132-4e2f-9d72-5015632c8e13}, ! Handle
  0.9.3;                                  ! Version Identifier

OS:Material:NoMass,
  {7a4cf997-1034-4447-a1e7-f0f6abaf8138}, ! Handle
  CP02 CARPET PAD,                        ! Name
  VeryRough,                              ! Roughness
  0.21648,                                ! Thermal Resistance {m2-K/W}
  0.9,                                    ! Thermal Absorptance
  0.7,                                    ! Solar Absorptance
  0.8;                                    ! Visible Absorptance

OS:Material,
  {14f8104d-2868-4335-a644-4dd9952c1371}, ! Handle
  Floor Insulation [2],                   ! Name
  MediumRough,                            ! Roughness
  0.0635689,                              ! Thickness {m}
  0.045,                                  ! Conductivity {W/m-K}
  265,                                    ! Density {kg/m3}
  836.8,                                  ! Specific Heat {J/kg-K}
  0.9,                                    ! Thermal Absorptance
  0.7,                                    ! Solar Absorptance
  0.7;                                    ! Visible Absorptance

OS:Construction,
  {50eec25e-26cc-4260-9f02-69b127825bd3}, ! Handle
  90.1-2007 Res 2A Exposed Floor Mass,    ! Name
  ,                                       ! Surface Rendering Name
  {14f8104d-2868-4335-a644-4dd9952c1371}, ! Layer 1
  {854c5186-9b33-44f7-8ee8-f62f126bb2a8}, ! Layer 2
  {7a4cf997-1034-4447-a1e7-f0f6abaf8138}; ! Layer 3

OS:Material,
  {854c5186-9b33-44f7-8ee8-f62f126bb2a8}, ! Handle
  MAT-CC05 8 HW CONCRETE,                 ! Name
  Rough,                                  ! Roughness
  0.20321,                                ! Thickness {m}
  1.311,                                  ! Conductivity {W/m-K}
  2240,                                   ! Density {kg/m3}
  836.8,                                  ! Specific Heat {J/kg-K}
  0.9,                                    ! Thermal Absorptance
  0.7,                                    ! Solar Absorptance
  0.7;                                    ! Visible Absorptance

OS:ComponentCost:LineItem,
  {61ec290f-4d05-4d3c-bcaf-3a791a8e4253}, ! Handle
  90.1-2007 Res 2A Exposed Floor Mass,    ! Name
  ,                                       ! Type
  Construction,                           ! Line Item Type
  90.1-2007 Res 2A Exposed Floor Mass,    ! Item Name
  ,                                       ! Object End Use Key
  ,                                       ! Quantity {dimensionless}
  49.612,                                 ! Material Cost {$}
  CostPerArea;                            ! Material Cost Units

