
OS:Version,
  {3ac13678-cfd5-4cc7-939c-8af74e070af3}, ! Handle
  0.9.3;                                  ! Version Identifier

OS:WindowMaterial:Glazing,
  {81a8768e-95b1-4800-939e-008c0acc8f36}, ! Handle
  Theoretical Glass [167],                ! Name
  SpectralAverage,                        ! Optical Data Type
  ,                                       ! Window Glass Spectral Data Set Name
  0.003,                                  ! Thickness {m}
  0.237362,                               ! Solar Transmittance at Normal Incidence
  0.712638,                               ! Front Side Solar Reflectance at Normal Incidence
  0.712638,                               ! Back Side Solar Reflectance at Normal Incidence
  0.251212,                               ! Visible Transmittance at Normal Incidence
  0.698788,                               ! Front Side Visible Reflectance at Normal Incidence
  0.698788,                               ! Back Side Visible Reflectance at Normal Incidence
  0,                                      ! Infrared Transmittance at Normal Incidence
  0.985,                                  ! Front Side Infrared Hemispherical Emissivity
  0.985,                                  ! Back Side Infrared Hemispherical Emissivity
  2.10728;                                ! Conductivity {W/m-K}

OS:ComponentCost:LineItem,
  {abcbbf89-e988-4a06-a3ba-3f5ac3653079}, ! Handle
  90.1-2007 Nonres 1A Window Metal framing all other, ! Name
  ,                                       ! Type
  Construction,                           ! Line Item Type
  90.1-2007 Nonres 1A Window Metal framing all other, ! Item Name
  ,                                       ! Object End Use Key
  ,                                       ! Quantity {dimensionless}
  534.616,                                ! Material Cost {$}
  CostPerArea;                            ! Material Cost Units

OS:Construction,
  {83a23529-b9a4-4e9b-97f4-ce291739438b}, ! Handle
  90.1-2007 Nonres 1A Window Metal framing all other, ! Name
  ,                                       ! Surface Rendering Name
  {81a8768e-95b1-4800-939e-008c0acc8f36}; ! Layer 1

