
OS:Version,
  {affee64e-815a-46c9-b1ea-8936bb6284bf}, ! Handle
  0.9.3;                                  ! Version Identifier

OS:Material,
  {ee454fc4-f8f5-4cd5-a33a-2dcb49447468}, ! Handle
  Roof Insulation [21],                   ! Name
  MediumRough,                            ! Roughness
  0.210538,                               ! Thickness {m}
  0.049,                                  ! Conductivity {W/m-K}
  265,                                    ! Density {kg/m3}
  836.8,                                  ! Specific Heat {J/kg-K}
  0.9,                                    ! Thermal Absorptance
  0.7,                                    ! Solar Absorptance
  0.7;                                    ! Visible Absorptance

OS:ComponentCost:LineItem,
  {4ed6d2ef-155c-4658-b24e-af00a7f006af}, ! Handle
  189.1-2009 Res 1A Roof IEAD,            ! Name
  ,                                       ! Type
  Construction,                           ! Line Item Type
  189.1-2009 Res 1A Roof IEAD,            ! Item Name
  ,                                       ! Object End Use Key
  ,                                       ! Quantity {dimensionless}
  56.652,                                 ! Material Cost {$}
  CostPerArea;                            ! Material Cost Units

OS:Construction,
  {6d5fed00-e354-4721-b9dc-48fc6e8a9c6e}, ! Handle
  189.1-2009 Res 1A Roof IEAD,            ! Name
  ,                                       ! Surface Rendering Name
  {d8b57234-5c2b-4327-9d84-801cbebf4396}, ! Layer 1
  {ee454fc4-f8f5-4cd5-a33a-2dcb49447468}, ! Layer 2
  {de3ca8a6-1610-4e1f-8fc4-cb688dbac0ee}; ! Layer 3

OS:Material,
  {d8b57234-5c2b-4327-9d84-801cbebf4396}, ! Handle
  Roof Membrane,                          ! Name
  VeryRough,                              ! Roughness
  0.0095,                                 ! Thickness {m}
  0.16,                                   ! Conductivity {W/m-K}
  1121.29,                                ! Density {kg/m3}
  1460,                                   ! Specific Heat {J/kg-K}
  0.9,                                    ! Thermal Absorptance
  0.7,                                    ! Solar Absorptance
  0.7;                                    ! Visible Absorptance

OS:Material,
  {de3ca8a6-1610-4e1f-8fc4-cb688dbac0ee}, ! Handle
  Metal Decking,                          ! Name
  MediumSmooth,                           ! Roughness
  0.001524,                               ! Thickness {m}
  45.006,                                 ! Conductivity {W/m-K}
  7680,                                   ! Density {kg/m3}
  418.4,                                  ! Specific Heat {J/kg-K}
  0.9,                                    ! Thermal Absorptance
  0.7,                                    ! Solar Absorptance
  0.3;                                    ! Visible Absorptance

