
OS:Version,
  {304bd9d2-cf00-4334-8973-7646d7e38325}, ! Handle
  0.9.3;                                  ! Version Identifier

OS:Material,
  {bc6b2968-5a9c-4d9a-8fa0-63d7371fd807}, ! Handle
  Metal Decking,                          ! Name
  MediumSmooth,                           ! Roughness
  0.001524,                               ! Thickness {m}
  45.006,                                 ! Conductivity {W/m-K}
  7680,                                   ! Density {kg/m3}
  418.4,                                  ! Specific Heat {J/kg-K}
  0.9,                                    ! Thermal Absorptance
  0.7,                                    ! Solar Absorptance
  0.3;                                    ! Visible Absorptance

OS:ComponentCost:LineItem,
  {98b0a77a-259a-47b0-accf-c4907f44f32a}, ! Handle
  90.1-2004 Nonres 5B Roof IEAD,          ! Name
  ,                                       ! Type
  Construction,                           ! Line Item Type
  90.1-2004 Nonres 5B Roof IEAD,          ! Item Name
  ,                                       ! Object End Use Key
  ,                                       ! Quantity {dimensionless}
  49.208,                                 ! Material Cost {$}
  CostPerArea;                            ! Material Cost Units

OS:Material,
  {7ec997fd-076d-4082-b2b8-cfdebb144c6a}, ! Handle
  Roof Membrane,                          ! Name
  VeryRough,                              ! Roughness
  0.0095,                                 ! Thickness {m}
  0.16,                                   ! Conductivity {W/m-K}
  1121.29,                                ! Density {kg/m3}
  1460,                                   ! Specific Heat {J/kg-K}
  0.9,                                    ! Thermal Absorptance
  0.7,                                    ! Solar Absorptance
  0.7;                                    ! Visible Absorptance

OS:Material,
  {1b26ca1c-d0c0-4270-a9d5-48f6453f686c}, ! Handle
  Roof Insulation,                        ! Name
  MediumRough,                            ! Roughness
  0.124958,                               ! Thickness {m}
  0.049,                                  ! Conductivity {W/m-K}
  265,                                    ! Density {kg/m3}
  836.8,                                  ! Specific Heat {J/kg-K}
  0.9,                                    ! Thermal Absorptance
  0.7,                                    ! Solar Absorptance
  0.7;                                    ! Visible Absorptance

OS:Construction,
  {57685fae-edcc-472b-ab24-1e3b72ae1331}, ! Handle
  90.1-2004 Nonres 5B Roof IEAD,          ! Name
  ,                                       ! Surface Rendering Name
  {7ec997fd-076d-4082-b2b8-cfdebb144c6a}, ! Layer 1
  {1b26ca1c-d0c0-4270-a9d5-48f6453f686c}, ! Layer 2
  {bc6b2968-5a9c-4d9a-8fa0-63d7371fd807}; ! Layer 3

