
OS:Version,
  {5917d670-50e6-41df-9791-9e7523d74757}, !- Handle
  1.1.0;                                  !- Version Identifier

OS:Construction,
  {224bb556-de93-4234-a6cd-594787504cab}, !- Handle
  Dbl LoE Elec Ref Bleached 6mm/6mm Air,  !- Name
  ,                                       !- Surface Rendering Name
  {dee92edd-1507-49e5-90de-5b0fb0fa4f78}, !- Layer 1
  {ca44e265-07d5-42a6-98eb-e382621ea4f6}, !- Layer 2
  {757c1bfa-461c-4b36-baf9-da058bb9fd46}; !- Layer 3

OS:WindowMaterial:Glazing,
  {dee92edd-1507-49e5-90de-5b0fb0fa4f78}, !- Handle
  ECREF-2 BLEACHED 6MM,                   !- Name
  SpectralAverage,                        !- Optical Data Type
  ,                                       !- Window Glass Spectral Data Set Name
  0.006,                                  !- Thickness {m}
  0.694,                                  !- Solar Transmittance at Normal Incidence
  0.168,                                  !- Front Side Solar Reflectance at Normal Incidence
  0.168,                                  !- Back Side Solar Reflectance at Normal Incidence
  0.818,                                  !- Visible Transmittance at Normal Incidence
  0.11,                                   !- Front Side Visible Reflectance at Normal Incidence
  0.11,                                   !- Back Side Visible Reflectance at Normal Incidence
  0,                                      !- Infrared Transmittance at Normal Incidence
  0.84,                                   !- Front Side Infrared Hemispherical Emissivity
  0.1,                                    !- Back Side Infrared Hemispherical Emissivity
  0.9;                                    !- Conductivity {W/m-K}

OS:WindowMaterial:Gas,
  {ca44e265-07d5-42a6-98eb-e382621ea4f6}, !- Handle
  AIR 6MM,                                !- Name
  Air,                                    !- Gas Type
  0.0063;                                 !- Thickness {m}

OS:WindowMaterial:Glazing,
  {757c1bfa-461c-4b36-baf9-da058bb9fd46}, !- Handle
  LoE SPEC SEL CLEAR 6MM Rev,             !- Name
  SpectralAverage,                        !- Optical Data Type
  ,                                       !- Window Glass Spectral Data Set Name
  0.006,                                  !- Thickness {m}
  0.43,                                   !- Solar Transmittance at Normal Incidence
  0.42,                                   !- Front Side Solar Reflectance at Normal Incidence
  0.3,                                    !- Back Side Solar Reflectance at Normal Incidence
  0.77,                                   !- Visible Transmittance at Normal Incidence
  0.06,                                   !- Front Side Visible Reflectance at Normal Incidence
  0.07,                                   !- Back Side Visible Reflectance at Normal Incidence
  0,                                      !- Infrared Transmittance at Normal Incidence
  0.03,                                   !- Front Side Infrared Hemispherical Emissivity
  0.84,                                   !- Back Side Infrared Hemispherical Emissivity
  0.9;                                    !- Conductivity {W/m-K}

