
OS:Version,
  {ea31a0b6-bf07-41de-9228-c43704e731f2}, ! Handle
  0.9.3;                                  ! Version Identifier

OS:Construction,
  {1176c8d3-5ec7-4858-9611-128fdc0e3dcf}, ! Handle
  Title 24-2005 Nonres 2 Ext Slab Unheated - 8in Slab without Carpet, ! Name
  ,                                       ! Surface Rendering Name
  {673f7d13-d16b-44c9-8dde-5e7de57f956d}; ! Layer 1

OS:Material,
  {673f7d13-d16b-44c9-8dde-5e7de57f956d}, ! Handle
  MAT-CC05 8 HW CONCRETE,                 ! Name
  Rough,                                  ! Roughness
  0.20321,                                ! Thickness {m}
  1.311,                                  ! Conductivity {W/m-K}
  2240,                                   ! Density {kg/m3}
  836.8,                                  ! Specific Heat {J/kg-K}
  0.9,                                    ! Thermal Absorptance
  0.7,                                    ! Solar Absorptance
  0.7;                                    ! Visible Absorptance

OS:ComponentCost:LineItem,
  {021cc262-5cff-4287-a0a6-d0088742dc8b}, ! Handle
  Title 24-2005 Nonres 2 Ext Slab Unheated - 8in Slab without Carpet, ! Name
  ,                                       ! Type
  Construction,                           ! Line Item Type
  Title 24-2005 Nonres 2 Ext Slab Unheated - 8in Slab without Carpet, ! Item Name
  ,                                       ! Object End Use Key
  ,                                       ! Quantity {dimensionless}
  45.52,                                  ! Material Cost {$}
  CostPerArea;                            ! Material Cost Units

OS:ComponentData,
  {9a47e26c-104d-442d-bc03-8f724f49139c}, ! Handle
  Component Data 1,                       ! Name
  {7add7b7c-826f-4028-94ce-235ada7086d5}, ! UUID
  {3698d9db-d618-4987-b932-2bdf1fb6148b}, ! Version UUID
  1363981973,                             ! Creation Timestamp
  1363981973,                             ! Version Timestamp
  {1176c8d3-5ec7-4858-9611-128fdc0e3dcf}, ! Name of Object 1
  {673f7d13-d16b-44c9-8dde-5e7de57f956d}, ! Name of Object 2
  {021cc262-5cff-4287-a0a6-d0088742dc8b}; ! Name of Object 3

