
OS:Version,
  {4911a96b-9e58-482d-ba0a-440bac691a53}, ! Handle
  0.9.3;                                  ! Version Identifier

OS:Construction,
  {2f95ec13-1fea-4deb-ba04-9a9cb3b1ff9a}, ! Handle
  Title 24-2005 Nonres 2 Ext Slab Unheated - 8in Slab without Carpet, ! Name
  ,                                       ! Surface Rendering Name
  {67dffb2f-52eb-4fa0-b456-727239bcd549}; ! Layer 1

OS:Material,
  {67dffb2f-52eb-4fa0-b456-727239bcd549}, ! Handle
  MAT-CC05 8 HW CONCRETE,                 ! Name
  Rough,                                  ! Roughness
  0.20321,                                ! Thickness {m}
  1.311,                                  ! Conductivity {W/m-K}
  2240,                                   ! Density {kg/m3}
  836.8,                                  ! Specific Heat {J/kg-K}
  0.9,                                    ! Thermal Absorptance
  0.7,                                    ! Solar Absorptance
  0.7;                                    ! Visible Absorptance

OS:ComponentCost:LineItem,
  {7d3e48d3-f481-48c9-af67-35464b1cdfe4}, ! Handle
  Title 24-2005 Nonres 2 Ext Slab Unheated - 8in Slab without Carpet, ! Name
  ,                                       ! Type
  Construction,                           ! Line Item Type
  Title 24-2005 Nonres 2 Ext Slab Unheated - 8in Slab without Carpet, ! Item Name
  ,                                       ! Object End Use Key
  ,                                       ! Quantity {dimensionless}
  45.52,                                  ! Material Cost {$}
  CostPerArea;                            ! Material Cost Units

