
OS:Version,
  {b9ae0112-91eb-4672-8258-2a53b0b476a0}, ! Handle
  0.9.3;                                  ! Version Identifier

OS:Material,
  {f19110b5-a3f9-47cc-9ec5-c149579b950c}, ! Handle
  Roof Membrane,                          ! Name
  VeryRough,                              ! Roughness
  0.0095,                                 ! Thickness {m}
  0.16,                                   ! Conductivity {W/m-K}
  1121.29,                                ! Density {kg/m3}
  1460,                                   ! Specific Heat {J/kg-K}
  0.9,                                    ! Thermal Absorptance
  0.7,                                    ! Solar Absorptance
  0.7;                                    ! Visible Absorptance

OS:ComponentCost:LineItem,
  {242c837c-6fe1-448c-984f-6661f6db1e66}, ! Handle
  90.1-2001 Res B18 Roof IEAD,            ! Name
  ,                                       ! Type
  Construction,                           ! Line Item Type
  90.1-2001 Res B18 Roof IEAD,            ! Item Name
  ,                                       ! Object End Use Key
  ,                                       ! Quantity {dimensionless}
  49.208,                                 ! Material Cost {$}
  CostPerArea;                            ! Material Cost Units

OS:Construction,
  {12cb0fc2-05b9-4fe6-9f1e-b8f96a3360a5}, ! Handle
  90.1-2001 Res B18 Roof IEAD,            ! Name
  ,                                       ! Surface Rendering Name
  {f19110b5-a3f9-47cc-9ec5-c149579b950c}, ! Layer 1
  {db9f45a8-242a-4e6f-9b1b-eea3ad7b5395}, ! Layer 2
  {03be87fe-f115-4dfd-b34d-e194101380d4}; ! Layer 3

OS:Material,
  {db9f45a8-242a-4e6f-9b1b-eea3ad7b5395}, ! Handle
  Roof Insulation,                        ! Name
  MediumRough,                            ! Roughness
  0.124958,                               ! Thickness {m}
  0.049,                                  ! Conductivity {W/m-K}
  265,                                    ! Density {kg/m3}
  836.8,                                  ! Specific Heat {J/kg-K}
  0.9,                                    ! Thermal Absorptance
  0.7,                                    ! Solar Absorptance
  0.7;                                    ! Visible Absorptance

OS:Material,
  {03be87fe-f115-4dfd-b34d-e194101380d4}, ! Handle
  Metal Decking,                          ! Name
  MediumSmooth,                           ! Roughness
  0.001524,                               ! Thickness {m}
  45.006,                                 ! Conductivity {W/m-K}
  7680,                                   ! Density {kg/m3}
  418.4,                                  ! Specific Heat {J/kg-K}
  0.9,                                    ! Thermal Absorptance
  0.7,                                    ! Solar Absorptance
  0.3;                                    ! Visible Absorptance

