
OS:Version,
  {d8eceded-1d90-4359-a0bf-8d07320cb4f0}, ! Handle
  0.9.3;                                  ! Version Identifier

OS:WindowMaterial:Glazing,
  {1af70dfc-f102-4cde-9f79-51f5d360e8b7}, ! Handle
  Theoretical Glass [440],                ! Name
  SpectralAverage,                        ! Optical Data Type
  ,                                       ! Window Glass Spectral Data Set Name
  0.003,                                  ! Thickness {m}
  0.304934,                               ! Solar Transmittance at Normal Incidence
  0.645066,                               ! Front Side Solar Reflectance at Normal Incidence
  0.645066,                               ! Back Side Solar Reflectance at Normal Incidence
  0.390045,                               ! Visible Transmittance at Normal Incidence
  0.559955,                               ! Front Side Visible Reflectance at Normal Incidence
  0.559955,                               ! Back Side Visible Reflectance at Normal Incidence
  0,                                      ! Infrared Transmittance at Normal Incidence
  0.9,                                    ! Front Side Infrared Hemispherical Emissivity
  0.9,                                    ! Back Side Infrared Hemispherical Emissivity
  0.0144823;                              ! Conductivity {W/m-K}

OS:ComponentCost:LineItem,
  {811442af-9f64-4bae-b175-5c4bc33b521d}, ! Handle
  90.1 Windows Window Fixed 2318 Brk-GrnSbe-Std-Clr, ! Name
  ,                                       ! Type
  Construction,                           ! Line Item Type
  90.1 Windows Window Fixed 2318 Brk-GrnSbe-Std-Clr, ! Item Name
  ,                                       ! Object End Use Key
  ,                                       ! Quantity {dimensionless}
  0,                                      ! Material Cost {$}
  CostPerArea;                            ! Material Cost Units

OS:Construction,
  {1f4c0d33-81dd-4e3f-8044-18759ddbfcf4}, ! Handle
  90.1 Windows Window Fixed 2318 Brk-GrnSbe-Std-Clr, ! Name
  ,                                       ! Surface Rendering Name
  {1af70dfc-f102-4cde-9f79-51f5d360e8b7}; ! Layer 1

