
OS:Version,
  {61fd4f7d-3dc7-4ccf-ad85-7f75293ea758}, ! Handle
  0.9.3;                                  ! Version Identifier

OS:Material,
  {38f010d6-cb01-48b9-adbd-fa1e7b8cab88}, ! Handle
  Metal Siding,                           ! Name
  Smooth,                                 ! Roughness
  0.0015,                                 ! Thickness {m}
  44.96,                                  ! Conductivity {W/m-K}
  7688.86,                                ! Density {kg/m3}
  410,                                    ! Specific Heat {J/kg-K}
  0.9,                                    ! Thermal Absorptance
  0.2,                                    ! Solar Absorptance
  0.2;                                    ! Visible Absorptance

OS:Material,
  {2a5d688f-144a-4d4d-8c7d-8bb7596adf07}, ! Handle
  1/2IN Gypsum,                           ! Name
  Smooth,                                 ! Roughness
  0.01271,                                ! Thickness {m}
  0.16,                                   ! Conductivity {W/m-K}
  784.9,                                  ! Density {kg/m3}
  830,                                    ! Specific Heat {J/kg-K}
  0.9,                                    ! Thermal Absorptance
  0.92,                                   ! Solar Absorptance
  0.92;                                   ! Visible Absorptance

OS:Construction,
  {354c359b-877e-4809-956a-6a430c4f8c5b}, ! Handle
  90.1-1999 Nonres B10 Ext Wall Metal Building, ! Name
  ,                                       ! Surface Rendering Name
  {38f010d6-cb01-48b9-adbd-fa1e7b8cab88}, ! Layer 1
  {b9aca7c3-cbeb-496a-ac11-22ad4ed676ca}, ! Layer 2
  {2a5d688f-144a-4d4d-8c7d-8bb7596adf07}; ! Layer 3

OS:Material,
  {b9aca7c3-cbeb-496a-ac11-22ad4ed676ca}, ! Handle
  Wall Insulation,                        ! Name
  MediumRough,                            ! Roughness
  0.0598725,                              ! Thickness {m}
  0.045,                                  ! Conductivity {W/m-K}
  265,                                    ! Density {kg/m3}
  836.8,                                  ! Specific Heat {J/kg-K}
  0.9,                                    ! Thermal Absorptance
  0.7,                                    ! Solar Absorptance
  0.7;                                    ! Visible Absorptance

OS:ComponentCost:LineItem,
  {51481772-09a7-4eae-bb5f-5541f1ee58ba}, ! Handle
  90.1-1999 Nonres B10 Ext Wall Metal Building, ! Name
  ,                                       ! Type
  Construction,                           ! Line Item Type
  90.1-1999 Nonres B10 Ext Wall Metal Building, ! Item Name
  ,                                       ! Object End Use Key
  ,                                       ! Quantity {dimensionless}
  98.78,                                  ! Material Cost {$}
  CostPerArea;                            ! Material Cost Units

