
OS:Version,
  {6d6051f4-464c-4f5b-b973-6672f9ca34b6}, ! Handle
  0.9.3;                                  ! Version Identifier

OS:Construction,
  {b810a2d5-3a19-4b78-8f8c-5bd82a33ceb9}, ! Handle
  90.1-1999 Nonres B10 Ext Wall Metal Building, ! Name
  ,                                       ! Surface Rendering Name
  {b75b36a3-f8cf-430a-b86c-0ceb810d6bb5}, ! Layer 1
  {f8ecd58d-1c3b-487d-9c43-ebc5be13f31d}, ! Layer 2
  {99b14faf-452e-46f0-8eee-6c8e862bd95a}; ! Layer 3

OS:Material,
  {b75b36a3-f8cf-430a-b86c-0ceb810d6bb5}, ! Handle
  Metal Siding,                           ! Name
  Smooth,                                 ! Roughness
  0.0015,                                 ! Thickness {m}
  44.96,                                  ! Conductivity {W/m-K}
  7688.86,                                ! Density {kg/m3}
  410,                                    ! Specific Heat {J/kg-K}
  0.9,                                    ! Thermal Absorptance
  0.2,                                    ! Solar Absorptance
  0.2;                                    ! Visible Absorptance

OS:Material,
  {f8ecd58d-1c3b-487d-9c43-ebc5be13f31d}, ! Handle
  Wall Insulation,                        ! Name
  MediumRough,                            ! Roughness
  0.0598725,                              ! Thickness {m}
  0.045,                                  ! Conductivity {W/m-K}
  265,                                    ! Density {kg/m3}
  836.8,                                  ! Specific Heat {J/kg-K}
  0.9,                                    ! Thermal Absorptance
  0.7,                                    ! Solar Absorptance
  0.7;                                    ! Visible Absorptance

OS:Material,
  {99b14faf-452e-46f0-8eee-6c8e862bd95a}, ! Handle
  1/2IN Gypsum,                           ! Name
  Smooth,                                 ! Roughness
  0.01271,                                ! Thickness {m}
  0.16,                                   ! Conductivity {W/m-K}
  784.9,                                  ! Density {kg/m3}
  830,                                    ! Specific Heat {J/kg-K}
  0.9,                                    ! Thermal Absorptance
  0.92,                                   ! Solar Absorptance
  0.92;                                   ! Visible Absorptance

OS:ComponentCost:LineItem,
  {eafcb90e-21ba-4e90-9cb0-7c747bac9836}, ! Handle
  90.1-1999 Nonres B10 Ext Wall Metal Building, ! Name
  ,                                       ! Type
  Construction,                           ! Line Item Type
  90.1-1999 Nonres B10 Ext Wall Metal Building, ! Item Name
  ,                                       ! Object End Use Key
  ,                                       ! Quantity {dimensionless}
  98.78,                                  ! Material Cost {$}
  CostPerArea;                            ! Material Cost Units

OS:ComponentData,
  {5432dcab-bc91-4f47-8024-19ffc30ad215}, ! Handle
  Component Data 1,                       ! Name
  {11fc4759-e090-4873-a19d-e888ebf0add2}, ! UUID
  {000dee08-1338-4d0f-b60e-8c66ae344069}, ! Version UUID
  1363981081,                             ! Creation Timestamp
  1363981081,                             ! Version Timestamp
  {b810a2d5-3a19-4b78-8f8c-5bd82a33ceb9}, ! Name of Object 1
  {b75b36a3-f8cf-430a-b86c-0ceb810d6bb5}, ! Name of Object 2
  {f8ecd58d-1c3b-487d-9c43-ebc5be13f31d}, ! Name of Object 3
  {99b14faf-452e-46f0-8eee-6c8e862bd95a}, ! Name of Object 4
  {eafcb90e-21ba-4e90-9cb0-7c747bac9836}; ! Name of Object 5

