
OS:Version,
  {1fec7a89-6424-470c-bc09-bee29fe0b205}, ! Handle
  0.9.3;                                  ! Version Identifier

OS:Construction,
  {80143738-5ac5-4c3f-8c74-b296d3f4ad0a}, ! Handle
  90.1-1999 Nonres B11 Skylight without Curb, ! Name
  ,                                       ! Surface Rendering Name
  {2ab088ef-e1eb-4f80-83bc-2f519f1094c3}; ! Layer 1

OS:WindowMaterial:Glazing,
  {2ab088ef-e1eb-4f80-83bc-2f519f1094c3}, ! Handle
  Theoretical Glass [32],                 ! Name
  SpectralAverage,                        ! Optical Data Type
  ,                                       ! Window Glass Spectral Data Set Name
  0.003,                                  ! Thickness {m}
  0.481761,                               ! Solar Transmittance at Normal Incidence
  0.468239,                               ! Front Side Solar Reflectance at Normal Incidence
  0.468239,                               ! Back Side Solar Reflectance at Normal Incidence
  0.529698,                               ! Visible Transmittance at Normal Incidence
  0.420302,                               ! Front Side Visible Reflectance at Normal Incidence
  0.420302,                               ! Back Side Visible Reflectance at Normal Incidence
  0,                                      ! Infrared Transmittance at Normal Incidence
  0.9,                                    ! Front Side Infrared Hemispherical Emissivity
  0.9,                                    ! Back Side Infrared Hemispherical Emissivity
  0.03026;                                ! Conductivity {W/m-K}

OS:ComponentCost:LineItem,
  {70657fa1-fd5e-41bb-99da-853ad44e0156}, ! Handle
  90.1-1999 Nonres B11 Skylight without Curb, ! Name
  ,                                       ! Type
  Construction,                           ! Line Item Type
  90.1-1999 Nonres B11 Skylight without Curb, ! Item Name
  ,                                       ! Object End Use Key
  ,                                       ! Quantity {dimensionless}
  514.818,                                ! Material Cost {$}
  CostPerArea;                            ! Material Cost Units

