
OS:Version,
  {189d78a0-8459-402c-a964-08886da47c90}, ! Handle
  0.9.3;                                  ! Version Identifier

OS:Construction,
  {bd8003d5-6cd6-47fb-a66f-0a3aa523b06e}, ! Handle
  90.1-2001 Nonres B20 Int Wall,          ! Name
  ,                                       ! Surface Rendering Name
  {4888ff09-ebe1-4c62-af05-94b3fbaf4a31}, ! Layer 1
  {4888ff09-ebe1-4c62-af05-94b3fbaf4a31}; ! Layer 2

OS:Material,
  {4888ff09-ebe1-4c62-af05-94b3fbaf4a31}, ! Handle
  GP01 1/2 GYPSUM,                        ! Name
  Smooth,                                 ! Roughness
  0.01271,                                ! Thickness {m}
  0.16,                                   ! Conductivity {W/m-K}
  800,                                    ! Density {kg/m3}
  1090,                                   ! Specific Heat {J/kg-K}
  0.9,                                    ! Thermal Absorptance
  0.7,                                    ! Solar Absorptance
  0.5;                                    ! Visible Absorptance

OS:ComponentCost:LineItem,
  {f08a4db6-6093-4515-9428-cb11d8c34d70}, ! Handle
  90.1-2001 Nonres B20 Int Wall,          ! Name
  ,                                       ! Type
  Construction,                           ! Line Item Type
  90.1-2001 Nonres B20 Int Wall,          ! Item Name
  ,                                       ! Object End Use Key
  ,                                       ! Quantity {dimensionless}
  0,                                      ! Material Cost {$}
  CostPerArea;                            ! Material Cost Units

OS:Material,
  {c2927158-bda9-4220-9531-d7a1688e1a2c}, ! Handle
  GP01 1/2 GYPSUM 1,                      ! Name
  Smooth,                                 ! Roughness
  0.01271,                                ! Thickness {m}
  0.16,                                   ! Conductivity {W/m-K}
  800,                                    ! Density {kg/m3}
  1090,                                   ! Specific Heat {J/kg-K}
  0.9,                                    ! Thermal Absorptance
  0.7,                                    ! Solar Absorptance
  0.5;                                    ! Visible Absorptance

