
OS:Version,
  {190e7422-26e4-451f-b0ae-2c111c215915}, ! Handle
  0.9.3;                                  ! Version Identifier

OS:Material,
  {a85ae552-71a7-43a7-9a00-5c19090335b3}, ! Handle
  AtticFloor Insulation [4],              ! Name
  MediumRough,                            ! Roughness
  0.392234,                               ! Thickness {m}
  0.049,                                  ! Conductivity {W/m-K}
  265,                                    ! Density {kg/m3}
  836.8,                                  ! Specific Heat {J/kg-K}
  0.9,                                    ! Thermal Absorptance
  0.7,                                    ! Solar Absorptance
  0.7;                                    ! Visible Absorptance

OS:Material,
  {9fe1e6f5-1c77-4e3d-99ff-7fafbae17715}, ! Handle
  1/2IN Gypsum Top,                       ! Name
  Smooth,                                 ! Roughness
  0.01271,                                ! Thickness {m}
  0.16,                                   ! Conductivity {W/m-K}
  784.9,                                  ! Density {kg/m3}
  830,                                    ! Specific Heat {J/kg-K}
  0.9,                                    ! Thermal Absorptance
  0.92,                                   ! Solar Absorptance
  0.92;                                   ! Visible Absorptance

OS:Material,
  {4f933759-c2b8-46f6-b2ec-813d718dc438}, ! Handle
  1/2IN Gypsum Bottom,                    ! Name
  Smooth,                                 ! Roughness
  0.01271,                                ! Thickness {m}
  0.16,                                   ! Conductivity {W/m-K}
  784.9,                                  ! Density {kg/m3}
  830,                                    ! Specific Heat {J/kg-K}
  0.9,                                    ! Thermal Absorptance
  0.92,                                   ! Solar Absorptance
  0.92;                                   ! Visible Absorptance

OS:Construction,
  {8689d784-dd73-4e69-b9a7-0dcecc4bbc90}, ! Handle
  189.1-2009 Nonres 6B Attic Floor,       ! Name
  ,                                       ! Surface Rendering Name
  {9fe1e6f5-1c77-4e3d-99ff-7fafbae17715}, ! Layer 1
  {a85ae552-71a7-43a7-9a00-5c19090335b3}, ! Layer 2
  {4f933759-c2b8-46f6-b2ec-813d718dc438}; ! Layer 3

OS:ComponentCost:LineItem,
  {b9f1078c-c7fc-4919-b0a9-eefac0ca713b}, ! Handle
  189.1-2009 Nonres 6B Attic Floor,       ! Name
  ,                                       ! Type
  Construction,                           ! Line Item Type
  189.1-2009 Nonres 6B Attic Floor,       ! Item Name
  ,                                       ! Object End Use Key
  ,                                       ! Quantity {dimensionless}
  37.058,                                 ! Material Cost {$}
  CostPerArea;                            ! Material Cost Units

