
OS:Version,
  {7058a346-e482-45df-86a7-32735c031bd5}, !- Handle
  1.1.0;                                  !- Version Identifier

OS:Construction,
  {384a9ff6-5717-45d7-ba0a-a69d16b73d7c}, !- Handle
  Dbl Elec Abs Bleached 6mm/13mm Air,     !- Name
  ,                                       !- Surface Rendering Name
  {6dcf28fc-1ef9-438f-9551-b08563828d2a}, !- Layer 1
  {241a37c2-28bf-46aa-a487-a7c9970f4ea8}, !- Layer 2
  {5e58a55d-6bdb-4e0c-bc35-1bded2276638}; !- Layer 3

OS:WindowMaterial:Glazing,
  {6dcf28fc-1ef9-438f-9551-b08563828d2a}, !- Handle
  ECABS-2 BLEACHED 6MM,                   !- Name
  SpectralAverage,                        !- Optical Data Type
  ,                                       !- Window Glass Spectral Data Set Name
  0.006,                                  !- Thickness {m}
  0.814,                                  !- Solar Transmittance at Normal Incidence
  0.086,                                  !- Front Side Solar Reflectance at Normal Incidence
  0.086,                                  !- Back Side Solar Reflectance at Normal Incidence
  0.847,                                  !- Visible Transmittance at Normal Incidence
  0.099,                                  !- Front Side Visible Reflectance at Normal Incidence
  0.099,                                  !- Back Side Visible Reflectance at Normal Incidence
  0,                                      !- Infrared Transmittance at Normal Incidence
  0.84,                                   !- Front Side Infrared Hemispherical Emissivity
  0.1,                                    !- Back Side Infrared Hemispherical Emissivity
  0.9;                                    !- Conductivity {W/m-K}

OS:WindowMaterial:Gas,
  {241a37c2-28bf-46aa-a487-a7c9970f4ea8}, !- Handle
  AIR 13MM,                               !- Name
  Air,                                    !- Gas Type
  0.0127;                                 !- Thickness {m}

OS:WindowMaterial:Glazing,
  {5e58a55d-6bdb-4e0c-bc35-1bded2276638}, !- Handle
  CLEAR 6MM,                              !- Name
  SpectralAverage,                        !- Optical Data Type
  ,                                       !- Window Glass Spectral Data Set Name
  0.006,                                  !- Thickness {m}
  0.775,                                  !- Solar Transmittance at Normal Incidence
  0.071,                                  !- Front Side Solar Reflectance at Normal Incidence
  0.071,                                  !- Back Side Solar Reflectance at Normal Incidence
  0.881,                                  !- Visible Transmittance at Normal Incidence
  0.08,                                   !- Front Side Visible Reflectance at Normal Incidence
  0.08,                                   !- Back Side Visible Reflectance at Normal Incidence
  0,                                      !- Infrared Transmittance at Normal Incidence
  0.84,                                   !- Front Side Infrared Hemispherical Emissivity
  0.84,                                   !- Back Side Infrared Hemispherical Emissivity
  0.9;                                    !- Conductivity {W/m-K}

