
OS:Version,
  {2560f82d-bb80-4e26-aa99-3a4b044f5a37}, ! Handle
  0.9.3;                                  ! Version Identifier

OS:Material,
  {d43671b0-216c-4b08-82dd-0c258d8aec0e}, ! Handle
  Roof Membrane,                          ! Name
  VeryRough,                              ! Roughness
  0.0095,                                 ! Thickness {m}
  0.16,                                   ! Conductivity {W/m-K}
  1121.29,                                ! Density {kg/m3}
  1460,                                   ! Specific Heat {J/kg-K}
  0.9,                                    ! Thermal Absorptance
  0.7,                                    ! Solar Absorptance
  0.7;                                    ! Visible Absorptance

OS:Construction,
  {7b7624fa-511a-431d-a8d4-4e6c3f279e4e}, ! Handle
  90.1-1999 Nonres B6 Roof IEAD,          ! Name
  ,                                       ! Surface Rendering Name
  {d43671b0-216c-4b08-82dd-0c258d8aec0e}, ! Layer 1
  {81597388-e238-48bc-9320-c2414395a584}, ! Layer 2
  {cd6a7e52-f65d-4ea4-9586-e44d6fbae553}; ! Layer 3

OS:Material,
  {81597388-e238-48bc-9320-c2414395a584}, ! Handle
  Roof Insulation,                        ! Name
  MediumRough,                            ! Roughness
  0.124958,                               ! Thickness {m}
  0.049,                                  ! Conductivity {W/m-K}
  265,                                    ! Density {kg/m3}
  836.8,                                  ! Specific Heat {J/kg-K}
  0.9,                                    ! Thermal Absorptance
  0.7,                                    ! Solar Absorptance
  0.7;                                    ! Visible Absorptance

OS:Material,
  {cd6a7e52-f65d-4ea4-9586-e44d6fbae553}, ! Handle
  Metal Decking,                          ! Name
  MediumSmooth,                           ! Roughness
  0.001524,                               ! Thickness {m}
  45.006,                                 ! Conductivity {W/m-K}
  7680,                                   ! Density {kg/m3}
  418.4,                                  ! Specific Heat {J/kg-K}
  0.9,                                    ! Thermal Absorptance
  0.7,                                    ! Solar Absorptance
  0.3;                                    ! Visible Absorptance

OS:ComponentCost:LineItem,
  {e2310d1c-86c9-4e64-ac9c-8f813463ef4e}, ! Handle
  90.1-1999 Nonres B6 Roof IEAD,          ! Name
  ,                                       ! Type
  Construction,                           ! Line Item Type
  90.1-1999 Nonres B6 Roof IEAD,          ! Item Name
  ,                                       ! Object End Use Key
  ,                                       ! Quantity {dimensionless}
  49.208,                                 ! Material Cost {$}
  CostPerArea;                            ! Material Cost Units

