
OS:Version,
  {816d8783-23c7-4864-ad9f-6165a058b2b1}, ! Handle
  0.9.3;                                  ! Version Identifier

OS:Construction,
  {e6412519-0940-42f9-868c-4c2d68df0e61}, ! Handle
  189.1-2009 Res 4B Window Metal framing curtainwall-storefront, ! Name
  ,                                       ! Surface Rendering Name
  {e5252f2d-0d4e-4870-b4d4-44c7fe823a52}; ! Layer 1

OS:WindowMaterial:Glazing,
  {e5252f2d-0d4e-4870-b4d4-44c7fe823a52}, ! Handle
  Theoretical Glass [224],                ! Name
  SpectralAverage,                        ! Optical Data Type
  ,                                       ! Window Glass Spectral Data Set Name
  0.003,                                  ! Thickness {m}
  0.380095,                               ! Solar Transmittance at Normal Incidence
  0.569905,                               ! Front Side Solar Reflectance at Normal Incidence
  0.569905,                               ! Back Side Solar Reflectance at Normal Incidence
  0.507883,                               ! Visible Transmittance at Normal Incidence
  0.442117,                               ! Front Side Visible Reflectance at Normal Incidence
  0.442117,                               ! Back Side Visible Reflectance at Normal Incidence
  0,                                      ! Infrared Transmittance at Normal Incidence
  0.9,                                    ! Front Side Infrared Hemispherical Emissivity
  0.9,                                    ! Back Side Infrared Hemispherical Emissivity
  0.0109361;                              ! Conductivity {W/m-K}

OS:ComponentCost:LineItem,
  {945350a4-db83-47b7-98f6-c0b07861d76b}, ! Handle
  189.1-2009 Res 4B Window Metal framing curtainwall-storefront, ! Name
  ,                                       ! Type
  Construction,                           ! Line Item Type
  189.1-2009 Res 4B Window Metal framing curtainwall-storefront, ! Item Name
  ,                                       ! Object End Use Key
  ,                                       ! Quantity {dimensionless}
  512.02,                                 ! Material Cost {$}
  CostPerArea;                            ! Material Cost Units

OS:ComponentData,
  {a78c9bcf-db0a-421d-898b-d589a4d9900e}, ! Handle
  Component Data 1,                       ! Name
  {4dc2241c-f8d5-4944-bc26-70862e5613eb}, ! UUID
  {19b894cd-7623-475b-a3ef-b7517fb61b1e}, ! Version UUID
  1363980974,                             ! Creation Timestamp
  1363980974,                             ! Version Timestamp
  {e6412519-0940-42f9-868c-4c2d68df0e61}, ! Name of Object 1
  {e5252f2d-0d4e-4870-b4d4-44c7fe823a52}, ! Name of Object 2
  {945350a4-db83-47b7-98f6-c0b07861d76b}; ! Name of Object 3

