
OS:Version,
  {88f7a94c-ccd6-4987-8cb4-edc646c2e13c}, ! Handle
  0.9.3;                                  ! Version Identifier

OS:ComponentCost:LineItem,
  {7124b713-896e-4548-a8f0-022026accd10}, ! Handle
  90.1-2001 Nonres B9 Ext Wall Metal Building, ! Name
  ,                                       ! Type
  Construction,                           ! Line Item Type
  90.1-2001 Nonres B9 Ext Wall Metal Building, ! Item Name
  ,                                       ! Object End Use Key
  ,                                       ! Quantity {dimensionless}
  98.78,                                  ! Material Cost {$}
  CostPerArea;                            ! Material Cost Units

OS:Construction,
  {52f05499-a250-4ce7-95f7-111be32b1b58}, ! Handle
  90.1-2001 Nonres B9 Ext Wall Metal Building, ! Name
  ,                                       ! Surface Rendering Name
  {0d2eccd5-bca2-43af-9feb-686943c4fef9}, ! Layer 1
  {cff096d3-0421-402e-849b-1eee75848307}, ! Layer 2
  {124eb462-510f-4196-8698-46a2bc0da078}; ! Layer 3

OS:Material,
  {0d2eccd5-bca2-43af-9feb-686943c4fef9}, ! Handle
  Metal Siding,                           ! Name
  Smooth,                                 ! Roughness
  0.0015,                                 ! Thickness {m}
  44.96,                                  ! Conductivity {W/m-K}
  7688.86,                                ! Density {kg/m3}
  410,                                    ! Specific Heat {J/kg-K}
  0.9,                                    ! Thermal Absorptance
  0.2,                                    ! Solar Absorptance
  0.2;                                    ! Visible Absorptance

OS:Material,
  {cff096d3-0421-402e-849b-1eee75848307}, ! Handle
  Wall Insulation,                        ! Name
  MediumRough,                            ! Roughness
  0.0598725,                              ! Thickness {m}
  0.045,                                  ! Conductivity {W/m-K}
  265,                                    ! Density {kg/m3}
  836.8,                                  ! Specific Heat {J/kg-K}
  0.9,                                    ! Thermal Absorptance
  0.7,                                    ! Solar Absorptance
  0.7;                                    ! Visible Absorptance

OS:Material,
  {124eb462-510f-4196-8698-46a2bc0da078}, ! Handle
  1/2IN Gypsum,                           ! Name
  Smooth,                                 ! Roughness
  0.01271,                                ! Thickness {m}
  0.16,                                   ! Conductivity {W/m-K}
  784.9,                                  ! Density {kg/m3}
  830,                                    ! Specific Heat {J/kg-K}
  0.9,                                    ! Thermal Absorptance
  0.92,                                   ! Solar Absorptance
  0.92;                                   ! Visible Absorptance

