
OS:Version,
  {00515903-37e9-46b1-b7a1-b9abd468b636}, ! Handle
  0.9.3;                                  ! Version Identifier

OS:Construction,
  {f0f662e4-8049-4ab0-9383-2b1d190b0f84}, ! Handle
  90.1-2004 Res 1A Roof Metal Building,   ! Name
  ,                                       ! Surface Rendering Name
  {439dd5b4-3e2f-4ce0-94ea-849eecc96b35}, ! Layer 1
  {b74781e5-27d7-412c-a89c-30d05d5a6706}; ! Layer 2

OS:Material,
  {439dd5b4-3e2f-4ce0-94ea-849eecc96b35}, ! Handle
  Metal Roofing,                          ! Name
  MediumSmooth,                           ! Roughness
  0.001524,                               ! Thickness {m}
  45.006,                                 ! Conductivity {W/m-K}
  7680,                                   ! Density {kg/m3}
  418.4,                                  ! Specific Heat {J/kg-K}
  0.9,                                    ! Thermal Absorptance
  0.7,                                    ! Solar Absorptance
  0.3;                                    ! Visible Absorptance

OS:Material,
  {b74781e5-27d7-412c-a89c-30d05d5a6706}, ! Handle
  Roof Insulation [1],                    ! Name
  MediumRough,                            ! Roughness
  0.123533,                               ! Thickness {m}
  0.049,                                  ! Conductivity {W/m-K}
  265,                                    ! Density {kg/m3}
  836.8,                                  ! Specific Heat {J/kg-K}
  0.9,                                    ! Thermal Absorptance
  0.7,                                    ! Solar Absorptance
  0.7;                                    ! Visible Absorptance

OS:ComponentCost:LineItem,
  {cc02b072-c35c-4254-9f0b-499f1981df9c}, ! Handle
  90.1-2004 Res 1A Roof Metal Building,   ! Name
  ,                                       ! Type
  Construction,                           ! Line Item Type
  90.1-2004 Res 1A Roof Metal Building,   ! Item Name
  ,                                       ! Object End Use Key
  ,                                       ! Quantity {dimensionless}
  38.206,                                 ! Material Cost {$}
  CostPerArea;                            ! Material Cost Units

OS:ComponentData,
  {8a2be7fd-d348-445e-866c-ff2c7060e8c8}, ! Handle
  Component Data 1,                       ! Name
  {184afa22-e367-4e39-954d-27a87184cbf9}, ! UUID
  {eff438c4-b880-4dc1-8985-0136c09fa978}, ! Version UUID
  1363981708,                             ! Creation Timestamp
  1363981708,                             ! Version Timestamp
  {f0f662e4-8049-4ab0-9383-2b1d190b0f84}, ! Name of Object 1
  {439dd5b4-3e2f-4ce0-94ea-849eecc96b35}, ! Name of Object 2
  {b74781e5-27d7-412c-a89c-30d05d5a6706}, ! Name of Object 3
  {cc02b072-c35c-4254-9f0b-499f1981df9c}; ! Name of Object 4

