
OS:Version,
  {4c730aaa-e912-4aa8-8099-ed7d1d43f69d}, ! Handle
  0.9.3;                                  ! Version Identifier

OS:Material,
  {e2489cc9-dbba-4850-9aab-4dab3c3cfe81}, ! Handle
  Roof Insulation [1],                    ! Name
  MediumRough,                            ! Roughness
  0.123533,                               ! Thickness {m}
  0.049,                                  ! Conductivity {W/m-K}
  265,                                    ! Density {kg/m3}
  836.8,                                  ! Specific Heat {J/kg-K}
  0.9,                                    ! Thermal Absorptance
  0.7,                                    ! Solar Absorptance
  0.7;                                    ! Visible Absorptance

OS:ComponentCost:LineItem,
  {d46cc971-2ccc-4f8a-98d5-fe73bc9d784d}, ! Handle
  90.1-2004 Res 1A Roof Metal Building,   ! Name
  ,                                       ! Type
  Construction,                           ! Line Item Type
  90.1-2004 Res 1A Roof Metal Building,   ! Item Name
  ,                                       ! Object End Use Key
  ,                                       ! Quantity {dimensionless}
  38.206,                                 ! Material Cost {$}
  CostPerArea;                            ! Material Cost Units

OS:Material,
  {5d8990b1-93d4-49c6-9a5d-a45079553029}, ! Handle
  Metal Roofing,                          ! Name
  MediumSmooth,                           ! Roughness
  0.001524,                               ! Thickness {m}
  45.006,                                 ! Conductivity {W/m-K}
  7680,                                   ! Density {kg/m3}
  418.4,                                  ! Specific Heat {J/kg-K}
  0.9,                                    ! Thermal Absorptance
  0.7,                                    ! Solar Absorptance
  0.3;                                    ! Visible Absorptance

OS:Construction,
  {f815e10c-e9c4-43e4-9236-97b5b0b776e2}, ! Handle
  90.1-2004 Res 1A Roof Metal Building,   ! Name
  ,                                       ! Surface Rendering Name
  {5d8990b1-93d4-49c6-9a5d-a45079553029}, ! Layer 1
  {e2489cc9-dbba-4850-9aab-4dab3c3cfe81}; ! Layer 2

