
OS:Version,
  {0bedd04c-6f0d-4503-a222-8d0acd7979da}, ! Handle
  0.9.3;                                  ! Version Identifier

OS:Material,
  {51fed8d5-8be0-4a1b-b78d-d3e0b7b4ccb5}, ! Handle
  Roof Insulation [80],                   ! Name
  MediumRough,                            ! Roughness
  0.468002,                               ! Thickness {m}
  0.049,                                  ! Conductivity {W/m-K}
  265,                                    ! Density {kg/m3}
  836.8,                                  ! Specific Heat {J/kg-K}
  0.9,                                    ! Thermal Absorptance
  0.7,                                    ! Solar Absorptance
  0.7;                                    ! Visible Absorptance

OS:Material,
  {344e0a21-1acf-453f-a9bc-3ca8a894563e}, ! Handle
  1IN Wood Decking,                       ! Name
  MediumSmooth,                           ! Roughness
  0.0254,                                 ! Thickness {m}
  0.1211,                                 ! Conductivity {W/m-K}
  593,                                    ! Density {kg/m3}
  2510,                                   ! Specific Heat {J/kg-K}
  0.9,                                    ! Thermal Absorptance
  0.78,                                   ! Solar Absorptance
  0.78;                                   ! Visible Absorptance

OS:Material,
  {bcaddbea-423f-427f-a8f0-82fe2eb772cf}, ! Handle
  1/2IN Gypsum,                           ! Name
  Smooth,                                 ! Roughness
  0.01271,                                ! Thickness {m}
  0.16,                                   ! Conductivity {W/m-K}
  784.9,                                  ! Density {kg/m3}
  830,                                    ! Specific Heat {J/kg-K}
  0.9,                                    ! Thermal Absorptance
  0.92,                                   ! Solar Absorptance
  0.92;                                   ! Visible Absorptance

OS:ComponentCost:LineItem,
  {bc87e314-6b2d-4141-89dc-53f114a3219d}, ! Handle
  90.1 Constructions Roof Attic and Other R-60.0, ! Name
  ,                                       ! Type
  Construction,                           ! Line Item Type
  90.1 Constructions Roof Attic and Other R-60.0, ! Item Name
  ,                                       ! Object End Use Key
  ,                                       ! Quantity {dimensionless}
  38.33,                                  ! Material Cost {$}
  CostPerArea;                            ! Material Cost Units

OS:Construction,
  {60631767-bf57-4ae0-b07e-75ae065d4890}, ! Handle
  90.1 Constructions Roof Attic and Other R-60.0, ! Name
  ,                                       ! Surface Rendering Name
  {d5dc861d-f04e-47ce-9f9f-7c7358b6dd03}, ! Layer 1
  {344e0a21-1acf-453f-a9bc-3ca8a894563e}, ! Layer 2
  {51fed8d5-8be0-4a1b-b78d-d3e0b7b4ccb5}, ! Layer 3
  {bcaddbea-423f-427f-a8f0-82fe2eb772cf}; ! Layer 4

OS:Material,
  {d5dc861d-f04e-47ce-9f9f-7c7358b6dd03}, ! Handle
  Wood Shingles,                          ! Name
  VeryRough,                              ! Roughness
  0.0178,                                 ! Thickness {m}
  0.115,                                  ! Conductivity {W/m-K}
  513,                                    ! Density {kg/m3}
  1255,                                   ! Specific Heat {J/kg-K}
  0.9,                                    ! Thermal Absorptance
  0.78,                                   ! Solar Absorptance
  0.78;                                   ! Visible Absorptance

