
! 
OS:Version,
  {9c37d538-db0d-4a47-9850-5bede7e76bd5}, !- Handle
  1.13.0;                                 !- Version Identifier


! {"nombreProductoCorto": "CLIMALIT PLUS con PLANITHERM XN F2 F5 6(14 argon90%) 4 (14 argon90%) 4 DIAMANT", "codigoEAN": "", "handle": "04c3873a-d02b-47c4-a7c2-1aaf4d459c19", "g": 0.56, "tV": 0.76, "u": 0.6, "nombreProducto": "CLIMALIT PLUS con PLANITHERM XN F2 F5 6(14 argon90%) 4 (14 argon90%) 4 DIAMANT\nU:0.6 W/m2K - g:0.56 - Tv: 0.76"}
OS:WindowMaterial:SimpleGlazingSystem,
  {04c3873a-d02b-47c4-a7c2-1aaf4d459c19}, !- Handle
  CLIMALIT PLUS con PLANITHERM XN F2 F5 6(14 argon90%) 4 (14 argon90%) 4 DIAMANT, !- Name
  0.6,                                    !- U-Factor {W/m2-K}
  0.56,                                    !- Solar Heat Gain Coefficient
  0.76;                                    !- Visible Transmittance     
  
  
OS:Construction,
  {2417b921-b9ec-40ec-a6c9-8a159c7c563a}, !- Handle
  CLIMALIT PLUS con PLANITHERM XN F2 F5 6(14 argon90%) 4 (14 argon90%) 4 DIAMANT,                         !- Name
  ,                                       !- Surface Rendering Name
  {04c3873a-d02b-47c4-a7c2-1aaf4d459c19}; !- Layer 1  

