
OS:Version,
  {48be78ac-0b6f-4590-ae39-c4891a984d56}, ! Handle
  0.9.3;                                  ! Version Identifier

OS:Material,
  {2ce31fb6-65e0-45a9-84a7-b8d8f05c0aa4}, ! Handle
  Metal Roofing,                          ! Name
  MediumSmooth,                           ! Roughness
  0.001524,                               ! Thickness {m}
  45.006,                                 ! Conductivity {W/m-K}
  7680,                                   ! Density {kg/m3}
  418.4,                                  ! Specific Heat {J/kg-K}
  0.9,                                    ! Thermal Absorptance
  0.7,                                    ! Solar Absorptance
  0.3;                                    ! Visible Absorptance

OS:Material,
  {fe1eae8f-cb90-40b8-9e49-c1458a3a5dfd}, ! Handle
  Roof Insulation [1],                    ! Name
  MediumRough,                            ! Roughness
  0.123533,                               ! Thickness {m}
  0.049,                                  ! Conductivity {W/m-K}
  265,                                    ! Density {kg/m3}
  836.8,                                  ! Specific Heat {J/kg-K}
  0.9,                                    ! Thermal Absorptance
  0.7,                                    ! Solar Absorptance
  0.7;                                    ! Visible Absorptance

OS:ComponentCost:LineItem,
  {797e437e-d6bf-435a-9ef7-fbd8105ae391}, ! Handle
  AEDG-SmOffice 2A Roof Metal Building,   ! Name
  ,                                       ! Type
  Construction,                           ! Line Item Type
  AEDG-SmOffice 2A Roof Metal Building,   ! Item Name
  ,                                       ! Object End Use Key
  ,                                       ! Quantity {dimensionless}
  38.206,                                 ! Material Cost {$}
  CostPerArea;                            ! Material Cost Units

OS:Construction,
  {c8376ad3-ed0d-42b5-b73c-daca7578b7ba}, ! Handle
  AEDG-SmOffice 2A Roof Metal Building,   ! Name
  ,                                       ! Surface Rendering Name
  {2ce31fb6-65e0-45a9-84a7-b8d8f05c0aa4}, ! Layer 1
  {fe1eae8f-cb90-40b8-9e49-c1458a3a5dfd}; ! Layer 2

