
OS:Version,
  {5c0accaf-7267-4d2c-9e17-946ba1d3aed4}, ! Handle
  0.9.3;                                  ! Version Identifier

OS:Material,
  {d61043cf-4940-42e1-a30c-f2550aa72f96}, ! Handle
  Wall Insulation [10],                   ! Name
  MediumRough,                            ! Roughness
  0.0971136,                              ! Thickness {m}
  0.045,                                  ! Conductivity {W/m-K}
  265,                                    ! Density {kg/m3}
  836.8,                                  ! Specific Heat {J/kg-K}
  0.9,                                    ! Thermal Absorptance
  0.7,                                    ! Solar Absorptance
  0.7;                                    ! Visible Absorptance

OS:Material:NoMass,
  {b9806bd8-6a45-4032-a7b0-d24715ed7f58}, ! Handle
  MAT-SHEATH,                             ! Name
  Rough,                                  ! Roughness
  0.36256,                                ! Thermal Resistance {m2-K/W}
  0.9,                                    ! Thermal Absorptance
  0.7,                                    ! Solar Absorptance
  0.7;                                    ! Visible Absorptance

OS:Material,
  {09bad366-1b0e-413e-ac54-62d41367b361}, ! Handle
  1/2IN Gypsum,                           ! Name
  Smooth,                                 ! Roughness
  0.01271,                                ! Thickness {m}
  0.16,                                   ! Conductivity {W/m-K}
  784.9,                                  ! Density {kg/m3}
  830,                                    ! Specific Heat {J/kg-K}
  0.9,                                    ! Thermal Absorptance
  0.92,                                   ! Solar Absorptance
  0.92;                                   ! Visible Absorptance

OS:Construction,
  {09e730e2-11df-4b86-92c5-a813657832fe}, ! Handle
  90.1-1999 Nonres B23 Ext Wall Steel-Framed, ! Name
  ,                                       ! Surface Rendering Name
  {b9806bd8-6a45-4032-a7b0-d24715ed7f58}, ! Layer 1
  {d61043cf-4940-42e1-a30c-f2550aa72f96}, ! Layer 2
  {09bad366-1b0e-413e-ac54-62d41367b361}; ! Layer 3

OS:ComponentCost:LineItem,
  {3dc2948b-2814-4a1f-af46-3661d246b62c}, ! Handle
  90.1-1999 Nonres B23 Ext Wall Steel-Framed, ! Name
  ,                                       ! Type
  Construction,                           ! Line Item Type
  90.1-1999 Nonres B23 Ext Wall Steel-Framed, ! Item Name
  ,                                       ! Object End Use Key
  ,                                       ! Quantity {dimensionless}
  94.657,                                 ! Material Cost {$}
  CostPerArea;                            ! Material Cost Units

