
OS:Version,
  {bb653e12-1004-496d-acc2-266a0904f807}, ! Handle
  0.9.3;                                  ! Version Identifier

OS:Construction,
  {4d8ac057-985c-4b4b-8c15-bffc91b82b94}, ! Handle
  90.1-1999 Nonres B23 Ext Wall Steel-Framed, ! Name
  ,                                       ! Surface Rendering Name
  {4332adb0-c93b-42a8-8ba5-ff4d9f3a6831}, ! Layer 1
  {cc88bd77-3a9c-49ac-aa95-49e2ac942795}, ! Layer 2
  {f242f72c-8ffa-4d0e-b808-75329f67f957}; ! Layer 3

OS:Material:NoMass,
  {4332adb0-c93b-42a8-8ba5-ff4d9f3a6831}, ! Handle
  MAT-SHEATH,                             ! Name
  Rough,                                  ! Roughness
  0.36256,                                ! Thermal Resistance {m2-K/W}
  0.9,                                    ! Thermal Absorptance
  0.7,                                    ! Solar Absorptance
  0.7;                                    ! Visible Absorptance

OS:Material,
  {cc88bd77-3a9c-49ac-aa95-49e2ac942795}, ! Handle
  Wall Insulation [10],                   ! Name
  MediumRough,                            ! Roughness
  0.0971136,                              ! Thickness {m}
  0.045,                                  ! Conductivity {W/m-K}
  265,                                    ! Density {kg/m3}
  836.8,                                  ! Specific Heat {J/kg-K}
  0.9,                                    ! Thermal Absorptance
  0.7,                                    ! Solar Absorptance
  0.7;                                    ! Visible Absorptance

OS:Material,
  {f242f72c-8ffa-4d0e-b808-75329f67f957}, ! Handle
  1/2IN Gypsum,                           ! Name
  Smooth,                                 ! Roughness
  0.01271,                                ! Thickness {m}
  0.16,                                   ! Conductivity {W/m-K}
  784.9,                                  ! Density {kg/m3}
  830,                                    ! Specific Heat {J/kg-K}
  0.9,                                    ! Thermal Absorptance
  0.92,                                   ! Solar Absorptance
  0.92;                                   ! Visible Absorptance

OS:ComponentCost:LineItem,
  {61ce0d98-bf67-4072-b0c5-e5cf877615a1}, ! Handle
  90.1-1999 Nonres B23 Ext Wall Steel-Framed, ! Name
  ,                                       ! Type
  Construction,                           ! Line Item Type
  90.1-1999 Nonres B23 Ext Wall Steel-Framed, ! Item Name
  ,                                       ! Object End Use Key
  ,                                       ! Quantity {dimensionless}
  94.657,                                 ! Material Cost {$}
  CostPerArea;                            ! Material Cost Units

OS:ComponentData,
  {588f05d9-b46a-4cf4-a0ce-764ff2b018af}, ! Handle
  Component Data 1,                       ! Name
  {b5503641-61a6-40f2-9387-cb62403ee6a1}, ! UUID
  {11351871-842b-47ec-8d99-a0b47f43d067}, ! Version UUID
  1363981143,                             ! Creation Timestamp
  1363981143,                             ! Version Timestamp
  {4d8ac057-985c-4b4b-8c15-bffc91b82b94}, ! Name of Object 1
  {4332adb0-c93b-42a8-8ba5-ff4d9f3a6831}, ! Name of Object 2
  {cc88bd77-3a9c-49ac-aa95-49e2ac942795}, ! Name of Object 3
  {f242f72c-8ffa-4d0e-b808-75329f67f957}, ! Name of Object 4
  {61ce0d98-bf67-4072-b0c5-e5cf877615a1}; ! Name of Object 5

