
OS:Version,
  {0c21f628-258b-46cf-b282-bf812259c3ed}, ! Handle
  0.9.3;                                  ! Version Identifier

OS:Material,
  {1fa940c3-377b-4e6c-9309-d7c21e187013}, ! Handle
  1/2IN Gypsum,                           ! Name
  Smooth,                                 ! Roughness
  0.01271,                                ! Thickness {m}
  0.16,                                   ! Conductivity {W/m-K}
  784.9,                                  ! Density {kg/m3}
  830,                                    ! Specific Heat {J/kg-K}
  0.9,                                    ! Thermal Absorptance
  0.92,                                   ! Solar Absorptance
  0.92;                                   ! Visible Absorptance

OS:Construction,
  {66cf179f-c04e-4e61-904e-2e7f9abeabb1}, ! Handle
  90.1 Constructions Roof Attic and Other NR, ! Name
  ,                                       ! Surface Rendering Name
  {59c9b859-b139-4308-b5c4-47fd248558c2}, ! Layer 1
  {e9d10fa2-249a-4830-ad91-f636751dc0a1}, ! Layer 2
  {1fa940c3-377b-4e6c-9309-d7c21e187013}; ! Layer 3

OS:Material,
  {59c9b859-b139-4308-b5c4-47fd248558c2}, ! Handle
  Wood Shingles,                          ! Name
  VeryRough,                              ! Roughness
  0.0178,                                 ! Thickness {m}
  0.115,                                  ! Conductivity {W/m-K}
  513,                                    ! Density {kg/m3}
  1255,                                   ! Specific Heat {J/kg-K}
  0.9,                                    ! Thermal Absorptance
  0.78,                                   ! Solar Absorptance
  0.78;                                   ! Visible Absorptance

OS:Material,
  {e9d10fa2-249a-4830-ad91-f636751dc0a1}, ! Handle
  1IN Wood Decking,                       ! Name
  MediumSmooth,                           ! Roughness
  0.0254,                                 ! Thickness {m}
  0.1211,                                 ! Conductivity {W/m-K}
  593,                                    ! Density {kg/m3}
  2510,                                   ! Specific Heat {J/kg-K}
  0.9,                                    ! Thermal Absorptance
  0.78,                                   ! Solar Absorptance
  0.78;                                   ! Visible Absorptance

OS:ComponentCost:LineItem,
  {a1e3a22c-af79-4e10-98da-381eda5e1c82}, ! Handle
  90.1 Constructions Roof Attic and Other NR, ! Name
  ,                                       ! Type
  Construction,                           ! Line Item Type
  90.1 Constructions Roof Attic and Other NR, ! Item Name
  ,                                       ! Object End Use Key
  ,                                       ! Quantity {dimensionless}
  29.993,                                 ! Material Cost {$}
  CostPerArea;                            ! Material Cost Units

