
OS:Version,
  {45808b5d-50c5-470e-8ede-53b8e9f64996}, ! Handle
  0.9.3;                                  ! Version Identifier

OS:ComponentCost:LineItem,
  {1e4d71ee-e626-49f1-8ffd-a330ee87766d}, ! Handle
  90.1-2007 Res 6B Window Metal framing curtainwall-storefront, ! Name
  ,                                       ! Type
  Construction,                           ! Line Item Type
  90.1-2007 Res 6B Window Metal framing curtainwall-storefront, ! Item Name
  ,                                       ! Object End Use Key
  ,                                       ! Quantity {dimensionless}
  512.02,                                 ! Material Cost {$}
  CostPerArea;                            ! Material Cost Units

OS:Construction,
  {7f04069e-05ef-4adb-909f-30589dca0c14}, ! Handle
  90.1-2007 Res 6B Window Metal framing curtainwall-storefront, ! Name
  ,                                       ! Surface Rendering Name
  {c262a4ec-bd1b-4866-a4d0-da64f4632913}; ! Layer 1

OS:WindowMaterial:Glazing,
  {c262a4ec-bd1b-4866-a4d0-da64f4632913}, ! Handle
  Theoretical Glass [184],                ! Name
  SpectralAverage,                        ! Optical Data Type
  ,                                       ! Window Glass Spectral Data Set Name
  0.003,                                  ! Thickness {m}
  0.394694,                               ! Solar Transmittance at Normal Incidence
  0.555306,                               ! Front Side Solar Reflectance at Normal Incidence
  0.555306,                               ! Back Side Solar Reflectance at Normal Incidence
  0.507883,                               ! Visible Transmittance at Normal Incidence
  0.442117,                               ! Front Side Visible Reflectance at Normal Incidence
  0.442117,                               ! Back Side Visible Reflectance at Normal Incidence
  0,                                      ! Infrared Transmittance at Normal Incidence
  0.9,                                    ! Front Side Infrared Hemispherical Emissivity
  0.9,                                    ! Back Side Infrared Hemispherical Emissivity
  0.0129994;                              ! Conductivity {W/m-K}

