
! 
OS:Version,
  {8503bb35-3288-4176-9c41-752f3d976c4b}, !- Handle
  1.13.0;                                 !- Version Identifier


! 
OS:Material,
  {38213d89-57bb-4b4b-be5e-d74a26719eea}, !- Handle
  Aislamiento: SATE
WEBER: weber.therm placa EPS 40 (0.040 m)
R: 1.1 m2K/W,                             !- Name
  MediumRough,                                 !- Roughness
  0.04,                                    !- Thickness {m}
  0.037,                                    !- Conductivity {W/m-K}
  15.0,                                    !- Density {kg/m3}
  800.0,                                    !- Specific Heat {J/kg-K}
  0.9,                                    !- Thermal Absorptance
  0.6,                                    !- Solar Absorptance
  0.6;                                    !- Visible Absorptance

