
OS:Version,
  {45388535-ba02-4b19-975c-f99f74d72499}, ! Handle
  0.9.3;                                  ! Version Identifier

OS:Construction,
  {e6e0d262-885e-4505-b8c3-e12478b1ac5c}, ! Handle
  90.1-1999 Nonres B7 Ext Wall Mass,      ! Name
  ,                                       ! Surface Rendering Name
  {e0a53e03-62bc-4eda-8a24-93615bd45606}, ! Layer 1
  {8a1fb0a0-8916-4e57-b50e-747d6731119b}, ! Layer 2
  {adf44162-901a-42db-9b44-40b7a1c4e03c}; ! Layer 3

OS:Material,
  {e0a53e03-62bc-4eda-8a24-93615bd45606}, ! Handle
  1IN Stucco,                             ! Name
  Smooth,                                 ! Roughness
  0.0253,                                 ! Thickness {m}
  0.6918,                                 ! Conductivity {W/m-K}
  1858,                                   ! Density {kg/m3}
  837,                                    ! Specific Heat {J/kg-K}
  0.9,                                    ! Thermal Absorptance
  0.92,                                   ! Solar Absorptance
  0.92;                                   ! Visible Absorptance

OS:Material,
  {8a1fb0a0-8916-4e57-b50e-747d6731119b}, ! Handle
  8IN Concrete HW,                        ! Name
  MediumRough,                            ! Roughness
  0.2033,                                 ! Thickness {m}
  1.7296,                                 ! Conductivity {W/m-K}
  2243,                                   ! Density {kg/m3}
  837,                                    ! Specific Heat {J/kg-K}
  0.9,                                    ! Thermal Absorptance
  0.65,                                   ! Solar Absorptance
  0.65;                                   ! Visible Absorptance

OS:Material,
  {adf44162-901a-42db-9b44-40b7a1c4e03c}, ! Handle
  1/2IN Gypsum,                           ! Name
  Smooth,                                 ! Roughness
  0.01271,                                ! Thickness {m}
  0.16,                                   ! Conductivity {W/m-K}
  784.9,                                  ! Density {kg/m3}
  830,                                    ! Specific Heat {J/kg-K}
  0.9,                                    ! Thermal Absorptance
  0.92,                                   ! Solar Absorptance
  0.92;                                   ! Visible Absorptance

OS:ComponentCost:LineItem,
  {cdc003c6-c7f2-4b0d-b32d-31296acf1887}, ! Handle
  90.1-1999 Nonres B7 Ext Wall Mass,      ! Name
  ,                                       ! Type
  Construction,                           ! Line Item Type
  90.1-1999 Nonres B7 Ext Wall Mass,      ! Item Name
  ,                                       ! Object End Use Key
  ,                                       ! Quantity {dimensionless}
  41.397,                                 ! Material Cost {$}
  CostPerArea;                            ! Material Cost Units

