
OS:Version,
  {fbe6c7a3-62ee-46dd-bf49-b4e20c721503}, ! Handle
  0.9.3;                                  ! Version Identifier

OS:Material,
  {c948f296-af4e-4ebe-afd1-26efef4d811f}, ! Handle
  1/2IN Gypsum,                           ! Name
  Smooth,                                 ! Roughness
  0.01271,                                ! Thickness {m}
  0.16,                                   ! Conductivity {W/m-K}
  784.9,                                  ! Density {kg/m3}
  830,                                    ! Specific Heat {J/kg-K}
  0.9,                                    ! Thermal Absorptance
  0.92,                                   ! Solar Absorptance
  0.92;                                   ! Visible Absorptance

OS:Material,
  {797e0152-a176-40b7-93af-38dfafc3deab}, ! Handle
  Wood Shingles,                          ! Name
  VeryRough,                              ! Roughness
  0.0178,                                 ! Thickness {m}
  0.115,                                  ! Conductivity {W/m-K}
  513,                                    ! Density {kg/m3}
  1255,                                   ! Specific Heat {J/kg-K}
  0.9,                                    ! Thermal Absorptance
  0.78,                                   ! Solar Absorptance
  0.78;                                   ! Visible Absorptance

OS:Material,
  {996bb8b5-5612-4a70-8fae-d0acfcf663c7}, ! Handle
  1IN Wood Decking,                       ! Name
  MediumSmooth,                           ! Roughness
  0.0254,                                 ! Thickness {m}
  0.1211,                                 ! Conductivity {W/m-K}
  593,                                    ! Density {kg/m3}
  2510,                                   ! Specific Heat {J/kg-K}
  0.9,                                    ! Thermal Absorptance
  0.78,                                   ! Solar Absorptance
  0.78;                                   ! Visible Absorptance

OS:Construction,
  {ca2a2225-936d-4b74-ad38-f3f2810cad61}, ! Handle
  189.1-2009 Res 6B Roof Attic and Other, ! Name
  ,                                       ! Surface Rendering Name
  {797e0152-a176-40b7-93af-38dfafc3deab}, ! Layer 1
  {996bb8b5-5612-4a70-8fae-d0acfcf663c7}, ! Layer 2
  {88c4c454-4fff-4eda-b910-4bd3493e7b40}, ! Layer 3
  {c948f296-af4e-4ebe-afd1-26efef4d811f}; ! Layer 4

OS:Material,
  {88c4c454-4fff-4eda-b910-4bd3493e7b40}, ! Handle
  Roof Insulation [23],                   ! Name
  MediumRough,                            ! Roughness
  0.375211,                               ! Thickness {m}
  0.049,                                  ! Conductivity {W/m-K}
  265,                                    ! Density {kg/m3}
  836.8,                                  ! Specific Heat {J/kg-K}
  0.9,                                    ! Thermal Absorptance
  0.7,                                    ! Solar Absorptance
  0.7;                                    ! Visible Absorptance

OS:ComponentCost:LineItem,
  {f5847703-06f4-4d35-9405-5bb57bf952aa}, ! Handle
  189.1-2009 Res 6B Roof Attic and Other, ! Name
  ,                                       ! Type
  Construction,                           ! Line Item Type
  189.1-2009 Res 6B Roof Attic and Other, ! Item Name
  ,                                       ! Object End Use Key
  ,                                       ! Quantity {dimensionless}
  36.871,                                 ! Material Cost {$}
  CostPerArea;                            ! Material Cost Units

