
OS:Version,
  {eb9fd957-ca3b-4141-b5e4-6dde972f9758}, ! Handle
  0.9.3;                                  ! Version Identifier

OS:Construction,
  {feadf99b-e775-4432-b210-2c41056f8a6a}, ! Handle
  90.1-1999 Res B18 Roof IEAD,            ! Name
  ,                                       ! Surface Rendering Name
  {ddbefcf7-6ff1-4aec-84f4-a64475cd927f}, ! Layer 1
  {ddff4e9c-ff7e-44e4-8de6-5a75403f1073}, ! Layer 2
  {909a1776-9b8a-4053-a775-c8a9dc4b2f02}; ! Layer 3

OS:Material,
  {ddbefcf7-6ff1-4aec-84f4-a64475cd927f}, ! Handle
  Roof Membrane,                          ! Name
  VeryRough,                              ! Roughness
  0.0095,                                 ! Thickness {m}
  0.16,                                   ! Conductivity {W/m-K}
  1121.29,                                ! Density {kg/m3}
  1460,                                   ! Specific Heat {J/kg-K}
  0.9,                                    ! Thermal Absorptance
  0.7,                                    ! Solar Absorptance
  0.7;                                    ! Visible Absorptance

OS:Material,
  {ddff4e9c-ff7e-44e4-8de6-5a75403f1073}, ! Handle
  Roof Insulation,                        ! Name
  MediumRough,                            ! Roughness
  0.124958,                               ! Thickness {m}
  0.049,                                  ! Conductivity {W/m-K}
  265,                                    ! Density {kg/m3}
  836.8,                                  ! Specific Heat {J/kg-K}
  0.9,                                    ! Thermal Absorptance
  0.7,                                    ! Solar Absorptance
  0.7;                                    ! Visible Absorptance

OS:Material,
  {909a1776-9b8a-4053-a775-c8a9dc4b2f02}, ! Handle
  Metal Decking,                          ! Name
  MediumSmooth,                           ! Roughness
  0.001524,                               ! Thickness {m}
  45.006,                                 ! Conductivity {W/m-K}
  7680,                                   ! Density {kg/m3}
  418.4,                                  ! Specific Heat {J/kg-K}
  0.9,                                    ! Thermal Absorptance
  0.7,                                    ! Solar Absorptance
  0.3;                                    ! Visible Absorptance

OS:ComponentCost:LineItem,
  {29dbb5fc-b575-4f94-a739-f3e29407bae7}, ! Handle
  90.1-1999 Res B18 Roof IEAD,            ! Name
  ,                                       ! Type
  Construction,                           ! Line Item Type
  90.1-1999 Res B18 Roof IEAD,            ! Item Name
  ,                                       ! Object End Use Key
  ,                                       ! Quantity {dimensionless}
  49.208,                                 ! Material Cost {$}
  CostPerArea;                            ! Material Cost Units

