
OS:Version,
  {ab1bbd5c-5302-4e2a-8328-0b23e0c94241}, ! Handle
  0.9.3;                                  ! Version Identifier

OS:Construction,
  {30b1f53f-a0e8-43b0-b366-a0288dd83b57}, ! Handle
  90.1-1999 Res B18 Roof IEAD,            ! Name
  ,                                       ! Surface Rendering Name
  {52ad7497-eec6-46f6-aa58-87a138144423}, ! Layer 1
  {1f4155db-fbfe-42a3-a742-c49325fd53fb}, ! Layer 2
  {147df1cc-dcde-409e-b232-1888b6cf3c51}; ! Layer 3

OS:Material,
  {52ad7497-eec6-46f6-aa58-87a138144423}, ! Handle
  Roof Membrane,                          ! Name
  VeryRough,                              ! Roughness
  0.0095,                                 ! Thickness {m}
  0.16,                                   ! Conductivity {W/m-K}
  1121.29,                                ! Density {kg/m3}
  1460,                                   ! Specific Heat {J/kg-K}
  0.9,                                    ! Thermal Absorptance
  0.7,                                    ! Solar Absorptance
  0.7;                                    ! Visible Absorptance

OS:Material,
  {1f4155db-fbfe-42a3-a742-c49325fd53fb}, ! Handle
  Roof Insulation,                        ! Name
  MediumRough,                            ! Roughness
  0.124958,                               ! Thickness {m}
  0.049,                                  ! Conductivity {W/m-K}
  265,                                    ! Density {kg/m3}
  836.8,                                  ! Specific Heat {J/kg-K}
  0.9,                                    ! Thermal Absorptance
  0.7,                                    ! Solar Absorptance
  0.7;                                    ! Visible Absorptance

OS:Material,
  {147df1cc-dcde-409e-b232-1888b6cf3c51}, ! Handle
  Metal Decking,                          ! Name
  MediumSmooth,                           ! Roughness
  0.001524,                               ! Thickness {m}
  45.006,                                 ! Conductivity {W/m-K}
  7680,                                   ! Density {kg/m3}
  418.4,                                  ! Specific Heat {J/kg-K}
  0.9,                                    ! Thermal Absorptance
  0.7,                                    ! Solar Absorptance
  0.3;                                    ! Visible Absorptance

OS:ComponentCost:LineItem,
  {3d00dc1e-3bfa-4d2a-b859-7b82c87d04f3}, ! Handle
  90.1-1999 Res B18 Roof IEAD,            ! Name
  ,                                       ! Type
  Construction,                           ! Line Item Type
  90.1-1999 Res B18 Roof IEAD,            ! Item Name
  ,                                       ! Object End Use Key
  ,                                       ! Quantity {dimensionless}
  49.208,                                 ! Material Cost {$}
  CostPerArea;                            ! Material Cost Units

OS:ComponentData,
  {3c0bee3e-7e83-407c-9aa3-dda2dbfa979b}, ! Handle
  Component Data 1,                       ! Name
  {90da8179-5258-4000-8ae7-f5c67845c7ea}, ! UUID
  {d464e9e1-74f2-4f8e-aed5-e1f7fba9f511}, ! Version UUID
  1363981241,                             ! Creation Timestamp
  1363981241,                             ! Version Timestamp
  {30b1f53f-a0e8-43b0-b366-a0288dd83b57}, ! Name of Object 1
  {52ad7497-eec6-46f6-aa58-87a138144423}, ! Name of Object 2
  {1f4155db-fbfe-42a3-a742-c49325fd53fb}, ! Name of Object 3
  {147df1cc-dcde-409e-b232-1888b6cf3c51}, ! Name of Object 4
  {3d00dc1e-3bfa-4d2a-b859-7b82c87d04f3}; ! Name of Object 5

