
OS:Version,
  {a3356943-0986-4bde-bb13-ead07bea8e26}, ! Handle
  0.9.3;                                  ! Version Identifier

OS:Material,
  {c33f790e-984a-423a-8edb-0bc11f868b61}, ! Handle
  Wall Insulation [104],                  ! Name
  MediumRough,                            ! Roughness
  0.0965465,                              ! Thickness {m}
  0.045,                                  ! Conductivity {W/m-K}
  265,                                    ! Density {kg/m3}
  836.8,                                  ! Specific Heat {J/kg-K}
  0.9,                                    ! Thermal Absorptance
  0.7,                                    ! Solar Absorptance
  0.7;                                    ! Visible Absorptance

OS:Material,
  {e93ccba6-d2aa-46db-83ae-33ae90d070dd}, ! Handle
  1/2IN Gypsum,                           ! Name
  Smooth,                                 ! Roughness
  0.01271,                                ! Thickness {m}
  0.16,                                   ! Conductivity {W/m-K}
  784.9,                                  ! Density {kg/m3}
  830,                                    ! Specific Heat {J/kg-K}
  0.9,                                    ! Thermal Absorptance
  0.92,                                   ! Solar Absorptance
  0.92;                                   ! Visible Absorptance

OS:ComponentCost:LineItem,
  {942ac522-9000-4579-932a-bcd738bfaa27}, ! Handle
  90.1 Constructions Ext Wall Steel-Framed R-13.0 + R-7.5 ci, ! Name
  ,                                       ! Type
  Construction,                           ! Line Item Type
  90.1 Constructions Ext Wall Steel-Framed R-13.0 + R-7.5 ci, ! Item Name
  ,                                       ! Object End Use Key
  ,                                       ! Quantity {dimensionless}
  94.574,                                 ! Material Cost {$}
  CostPerArea;                            ! Material Cost Units

OS:Construction,
  {146b3d49-eea7-4db0-b297-ca7f28b943ee}, ! Handle
  90.1 Constructions Ext Wall Steel-Framed R-13.0 + R-7.5 ci, ! Name
  ,                                       ! Surface Rendering Name
  {9599b8d3-19e9-473c-af71-91b6fd032ef0}, ! Layer 1
  {c33f790e-984a-423a-8edb-0bc11f868b61}, ! Layer 2
  {e93ccba6-d2aa-46db-83ae-33ae90d070dd}; ! Layer 3

OS:Material:NoMass,
  {9599b8d3-19e9-473c-af71-91b6fd032ef0}, ! Handle
  MAT-SHEATH,                             ! Name
  Rough,                                  ! Roughness
  0.36256,                                ! Thermal Resistance {m2-K/W}
  0.9,                                    ! Thermal Absorptance
  0.7,                                    ! Solar Absorptance
  0.7;                                    ! Visible Absorptance

