
OS:Version,
  {7c404203-fe72-4eb8-863a-65eeb092d1e5}, ! Handle
  0.9.3;                                  ! Version Identifier

OS:Construction,
  {d5400617-ef44-42e9-9533-7f9d927117d5}, ! Handle
  90.1-2001 Nonres B10 Window Fixed,      ! Name
  ,                                       ! Surface Rendering Name
  {6c50633a-edad-40db-bbe0-27db9e18db06}; ! Layer 1

OS:WindowMaterial:Glazing,
  {6c50633a-edad-40db-bbe0-27db9e18db06}, ! Handle
  Theoretical Glass [27],                 ! Name
  SpectralAverage,                        ! Optical Data Type
  ,                                       ! Window Glass Spectral Data Set Name
  0.003,                                  ! Thickness {m}
  0.255355,                               ! Solar Transmittance at Normal Incidence
  0.694645,                               ! Front Side Solar Reflectance at Normal Incidence
  0.694645,                               ! Back Side Solar Reflectance at Normal Incidence
  0.258624,                               ! Visible Transmittance at Normal Incidence
  0.691376,                               ! Front Side Visible Reflectance at Normal Incidence
  0.691376,                               ! Back Side Visible Reflectance at Normal Incidence
  0,                                      ! Infrared Transmittance at Normal Incidence
  0.9,                                    ! Front Side Infrared Hemispherical Emissivity
  0.9,                                    ! Back Side Infrared Hemispherical Emissivity
  0.0134755;                              ! Conductivity {W/m-K}

OS:ComponentCost:LineItem,
  {0d50597a-1d36-4588-ac22-7716d8f78c64}, ! Handle
  90.1-2001 Nonres B10 Window Fixed,      ! Name
  ,                                       ! Type
  Construction,                           ! Line Item Type
  90.1-2001 Nonres B10 Window Fixed,      ! Item Name
  ,                                       ! Object End Use Key
  ,                                       ! Quantity {dimensionless}
  560.656,                                ! Material Cost {$}
  CostPerArea;                            ! Material Cost Units

