
OS:Version,
  {5474bd2d-2edd-49b4-9b10-15c7757fdc1e}, ! Handle
  0.9.3;                                  ! Version Identifier

OS:Construction,
  {4cef3134-c7e7-423b-b384-a48d242ba65c}, ! Handle
  90.1-2001 Nonres B26 Window Fixed,      ! Name
  ,                                       ! Surface Rendering Name
  {4655dd33-d93d-4289-9852-850a0cc1fa7c}; ! Layer 1

OS:WindowMaterial:Glazing,
  {4655dd33-d93d-4289-9852-850a0cc1fa7c}, ! Handle
  Theoretical Glass [57],                 ! Name
  SpectralAverage,                        ! Optical Data Type
  ,                                       ! Window Glass Spectral Data Set Name
  0.003,                                  ! Thickness {m}
  0.457116,                               ! Solar Transmittance at Normal Incidence
  0.492884,                               ! Front Side Solar Reflectance at Normal Incidence
  0.492884,                               ! Back Side Solar Reflectance at Normal Incidence
  0.493419,                               ! Visible Transmittance at Normal Incidence
  0.456581,                               ! Front Side Visible Reflectance at Normal Incidence
  0.456581,                               ! Back Side Visible Reflectance at Normal Incidence
  0,                                      ! Infrared Transmittance at Normal Incidence
  0.9,                                    ! Front Side Infrared Hemispherical Emissivity
  0.9,                                    ! Back Side Infrared Hemispherical Emissivity
  0.00557951;                             ! Conductivity {W/m-K}

OS:ComponentCost:LineItem,
  {a850bb68-4cfb-45ff-8b4e-8ef1c1a6968b}, ! Handle
  90.1-2001 Nonres B26 Window Fixed,      ! Name
  ,                                       ! Type
  Construction,                           ! Line Item Type
  90.1-2001 Nonres B26 Window Fixed,      ! Item Name
  ,                                       ! Object End Use Key
  ,                                       ! Quantity {dimensionless}
  660.078,                                ! Material Cost {$}
  CostPerArea;                            ! Material Cost Units

OS:ComponentData,
  {ea6ada5b-4453-418f-be6e-4f229c5e8103}, ! Handle
  Component Data 1,                       ! Name
  {3800f498-a06b-47be-b510-ef1517c1d027}, ! UUID
  {dd05b17b-e249-4936-b20c-56e4927f5028}, ! Version UUID
  1363981444,                             ! Creation Timestamp
  1363981444,                             ! Version Timestamp
  {4cef3134-c7e7-423b-b384-a48d242ba65c}, ! Name of Object 1
  {4655dd33-d93d-4289-9852-850a0cc1fa7c}, ! Name of Object 2
  {a850bb68-4cfb-45ff-8b4e-8ef1c1a6968b}; ! Name of Object 3

