
OS:Version,
  {a4abc271-25ed-4c3c-a926-f2d470426a2a}, ! Handle
  0.9.3;                                  ! Version Identifier

OS:Construction,
  {100305a6-c427-4d13-af2e-a380d31cc241}, ! Handle
  90.1-2001 Nonres B26 Window Fixed,      ! Name
  ,                                       ! Surface Rendering Name
  {4dec15d8-fed2-4ff1-b34b-013b1f34f33b}; ! Layer 1

OS:WindowMaterial:Glazing,
  {4dec15d8-fed2-4ff1-b34b-013b1f34f33b}, ! Handle
  Theoretical Glass [57],                 ! Name
  SpectralAverage,                        ! Optical Data Type
  ,                                       ! Window Glass Spectral Data Set Name
  0.003,                                  ! Thickness {m}
  0.457116,                               ! Solar Transmittance at Normal Incidence
  0.492884,                               ! Front Side Solar Reflectance at Normal Incidence
  0.492884,                               ! Back Side Solar Reflectance at Normal Incidence
  0.493419,                               ! Visible Transmittance at Normal Incidence
  0.456581,                               ! Front Side Visible Reflectance at Normal Incidence
  0.456581,                               ! Back Side Visible Reflectance at Normal Incidence
  0,                                      ! Infrared Transmittance at Normal Incidence
  0.9,                                    ! Front Side Infrared Hemispherical Emissivity
  0.9,                                    ! Back Side Infrared Hemispherical Emissivity
  0.00557951;                             ! Conductivity {W/m-K}

OS:ComponentCost:LineItem,
  {64b1ec37-e2ae-44bc-bf85-c9be98f2c89c}, ! Handle
  90.1-2001 Nonres B26 Window Fixed,      ! Name
  ,                                       ! Type
  Construction,                           ! Line Item Type
  90.1-2001 Nonres B26 Window Fixed,      ! Item Name
  ,                                       ! Object End Use Key
  ,                                       ! Quantity {dimensionless}
  660.078,                                ! Material Cost {$}
  CostPerArea;                            ! Material Cost Units

