
OS:Version,
  {27444280-3607-4d64-b978-f637ce125186}, ! Handle
  0.9.3;                                  ! Version Identifier

OS:Material,
  {2b73a330-085b-4875-b81a-24e7b2b7046c}, ! Handle
  Roof Insulation [21],                   ! Name
  MediumRough,                            ! Roughness
  0.210538,                               ! Thickness {m}
  0.049,                                  ! Conductivity {W/m-K}
  265,                                    ! Density {kg/m3}
  836.8,                                  ! Specific Heat {J/kg-K}
  0.9,                                    ! Thermal Absorptance
  0.7,                                    ! Solar Absorptance
  0.7;                                    ! Visible Absorptance

OS:ComponentCost:LineItem,
  {a93b529c-d8b9-459d-9c2e-89c003bcadf4}, ! Handle
  189.1-2009 Nonres 4B Roof IEAD,         ! Name
  ,                                       ! Type
  Construction,                           ! Line Item Type
  189.1-2009 Nonres 4B Roof IEAD,         ! Item Name
  ,                                       ! Object End Use Key
  ,                                       ! Quantity {dimensionless}
  56.652,                                 ! Material Cost {$}
  CostPerArea;                            ! Material Cost Units

OS:Material,
  {3bc6e266-ad76-4fba-8749-879eddc5f2b9}, ! Handle
  Metal Decking,                          ! Name
  MediumSmooth,                           ! Roughness
  0.001524,                               ! Thickness {m}
  45.006,                                 ! Conductivity {W/m-K}
  7680,                                   ! Density {kg/m3}
  418.4,                                  ! Specific Heat {J/kg-K}
  0.9,                                    ! Thermal Absorptance
  0.7,                                    ! Solar Absorptance
  0.3;                                    ! Visible Absorptance

OS:Material,
  {51f20ee5-cbe5-464a-a7fc-c99ebc060171}, ! Handle
  Roof Membrane,                          ! Name
  VeryRough,                              ! Roughness
  0.0095,                                 ! Thickness {m}
  0.16,                                   ! Conductivity {W/m-K}
  1121.29,                                ! Density {kg/m3}
  1460,                                   ! Specific Heat {J/kg-K}
  0.9,                                    ! Thermal Absorptance
  0.7,                                    ! Solar Absorptance
  0.7;                                    ! Visible Absorptance

OS:Construction,
  {5bf3aa9c-1f39-44d4-831f-18d776222f79}, ! Handle
  189.1-2009 Nonres 4B Roof IEAD,         ! Name
  ,                                       ! Surface Rendering Name
  {51f20ee5-cbe5-464a-a7fc-c99ebc060171}, ! Layer 1
  {2b73a330-085b-4875-b81a-24e7b2b7046c}, ! Layer 2
  {3bc6e266-ad76-4fba-8749-879eddc5f2b9}; ! Layer 3

