
OS:Version,
  {dc3b6e04-a484-43fb-8604-5f983fd91b7e}, ! Handle
  0.9.3;                                  ! Version Identifier

OS:Construction,
  {c786579e-8da8-46e5-b5ac-a1ed3775ef22}, ! Handle
  Title 24-2008 Nonres 16 Skylight Plastic Skylight with Curb, ! Name
  ,                                       ! Surface Rendering Name
  {34fb344f-5e87-4040-abf6-b28b0255f0a8}; ! Layer 1

OS:WindowMaterial:Glazing,
  {34fb344f-5e87-4040-abf6-b28b0255f0a8}, ! Handle
  Theoretical Glass [675],                ! Name
  SpectralAverage,                        ! Optical Data Type
  ,                                       ! Window Glass Spectral Data Set Name
  0.003,                                  ! Thickness {m}
  0.557035,                               ! Solar Transmittance at Normal Incidence
  0.392965,                               ! Front Side Solar Reflectance at Normal Incidence
  0.392965,                               ! Back Side Solar Reflectance at Normal Incidence
  0.569806,                               ! Visible Transmittance at Normal Incidence
  0.380194,                               ! Front Side Visible Reflectance at Normal Incidence
  0.380194,                               ! Back Side Visible Reflectance at Normal Incidence
  0,                                      ! Infrared Transmittance at Normal Incidence
  0.91,                                   ! Front Side Infrared Hemispherical Emissivity
  0.91,                                   ! Back Side Infrared Hemispherical Emissivity
  0.387053;                               ! Conductivity {W/m-K}

