
OS:Version,
  {dea7e88e-d762-412f-8099-0ead9b927da1}, ! Handle
  0.9.3;                                  ! Version Identifier

OS:Construction,
  {fc4f8edf-9e41-4218-9ce5-3eec72f8b7da}, ! Handle
  90.1-2007 Res 5B Door Non-Swinging,     ! Name
  ,                                       ! Surface Rendering Name
  {5f462bed-55f1-41a1-a23f-fdf6d46d7441}, ! Layer 1
  {f290b9d3-1882-4dae-852e-f57ea241f289}, ! Layer 2
  {f7de25b2-e18c-4d61-8ccd-7b76dc848698}; ! Layer 3

OS:Material,
  {5f462bed-55f1-41a1-a23f-fdf6d46d7441}, ! Handle
  METAL Door Medium 18Ga,                 ! Name
  Smooth,                                 ! Roughness
  0.0013106,                              ! Thickness {m}
  45.3149,                                ! Conductivity {W/m-K}
  7833.03,                                ! Density {kg/m3}
  502.08,                                 ! Specific Heat {J/kg-K}
  0.8,                                    ! Thermal Absorptance
  0.5,                                    ! Solar Absorptance
  0.5;                                    ! Visible Absorptance

OS:Material:NoMass,
  {f290b9d3-1882-4dae-852e-f57ea241f289}, ! Handle
  AIR [2],                                ! Name
  Smooth,                                 ! Roughness
  0.352085,                               ! Thermal Resistance {m2-K/W}
  0.8,                                    ! Thermal Absorptance
  0.5,                                    ! Solar Absorptance
  0.5;                                    ! Visible Absorptance

OS:Material,
  {f7de25b2-e18c-4d61-8ccd-7b76dc848698}, ! Handle
  METAL Door Medium 18Ga_2,               ! Name
  Smooth,                                 ! Roughness
  0.0013106,                              ! Thickness {m}
  45.3149,                                ! Conductivity {W/m-K}
  7833.03,                                ! Density {kg/m3}
  502.08,                                 ! Specific Heat {J/kg-K}
  0.8,                                    ! Thermal Absorptance
  0.5,                                    ! Solar Absorptance
  0.5;                                    ! Visible Absorptance

OS:ComponentCost:LineItem,
  {06671f5e-8bab-4bdf-9157-7cb5272fd113}, ! Handle
  90.1-2007 Res 5B Door Non-Swinging,     ! Name
  ,                                       ! Type
  Construction,                           ! Line Item Type
  90.1-2007 Res 5B Door Non-Swinging,     ! Item Name
  ,                                       ! Object End Use Key
  ,                                       ! Quantity {dimensionless}
  0,                                      ! Material Cost {$}
  CostPerArea;                            ! Material Cost Units

