
OS:Version,
  {464da17c-86ea-4b91-a1a4-1b14b6c63193}, ! Handle
  0.9.3;                                  ! Version Identifier

OS:Construction,
  {8d484265-3aa2-4694-b411-d6a9037f2b67}, ! Handle
  90.1-2001 Res B24 Ext Slab Unheated - 8in Slab without Carpet, ! Name
  ,                                       ! Surface Rendering Name
  {d9f6c2d9-cdf4-402b-9f05-aff891baf9eb}; ! Layer 1

OS:Material,
  {d9f6c2d9-cdf4-402b-9f05-aff891baf9eb}, ! Handle
  MAT-CC05 8 HW CONCRETE,                 ! Name
  Rough,                                  ! Roughness
  0.20321,                                ! Thickness {m}
  1.311,                                  ! Conductivity {W/m-K}
  2240,                                   ! Density {kg/m3}
  836.8,                                  ! Specific Heat {J/kg-K}
  0.9,                                    ! Thermal Absorptance
  0.7,                                    ! Solar Absorptance
  0.7;                                    ! Visible Absorptance

OS:ComponentCost:LineItem,
  {147b3069-5ded-49bb-957c-73e34667be73}, ! Handle
  90.1-2001 Res B24 Ext Slab Unheated - 8in Slab without Carpet, ! Name
  ,                                       ! Type
  Construction,                           ! Line Item Type
  90.1-2001 Res B24 Ext Slab Unheated - 8in Slab without Carpet, ! Item Name
  ,                                       ! Object End Use Key
  ,                                       ! Quantity {dimensionless}
  45.52,                                  ! Material Cost {$}
  CostPerArea;                            ! Material Cost Units

OS:ComponentData,
  {18eda296-39e5-44af-bd49-c971467d1bac}, ! Handle
  Component Data 1,                       ! Name
  {904d8b00-11dc-4267-ab9c-4b58bca4a90f}, ! UUID
  {d067ef61-7d75-40f6-b111-efa5337a3d25}, ! Version UUID
  1363981606,                             ! Creation Timestamp
  1363981606,                             ! Version Timestamp
  {8d484265-3aa2-4694-b411-d6a9037f2b67}, ! Name of Object 1
  {d9f6c2d9-cdf4-402b-9f05-aff891baf9eb}, ! Name of Object 2
  {147b3069-5ded-49bb-957c-73e34667be73}; ! Name of Object 3

