
OS:Version,
  {b0afc262-88b6-454d-8c2d-79e414cb7a4c}, ! Handle
  0.9.3;                                  ! Version Identifier

OS:ComponentCost:LineItem,
  {532764bc-9ce6-4fdf-8f4e-4e4fea6b9f92}, ! Handle
  90.1-2001 Nonres B3 Skylight without Curb, ! Name
  ,                                       ! Type
  Construction,                           ! Line Item Type
  90.1-2001 Nonres B3 Skylight without Curb, ! Item Name
  ,                                       ! Object End Use Key
  ,                                       ! Quantity {dimensionless}
  498.248,                                ! Material Cost {$}
  CostPerArea;                            ! Material Cost Units

OS:WindowMaterial:Glazing,
  {f0fa1864-a4b5-489c-8b73-3f1bc93534f0}, ! Handle
  Theoretical Glass [8],                  ! Name
  SpectralAverage,                        ! Optical Data Type
  ,                                       ! Window Glass Spectral Data Set Name
  0.003,                                  ! Thickness {m}
  0.346104,                               ! Solar Transmittance at Normal Incidence
  0.603896,                               ! Front Side Solar Reflectance at Normal Incidence
  0.603896,                               ! Back Side Solar Reflectance at Normal Incidence
  0.376261,                               ! Visible Transmittance at Normal Incidence
  0.573739,                               ! Front Side Visible Reflectance at Normal Incidence
  0.573739,                               ! Back Side Visible Reflectance at Normal Incidence
  0,                                      ! Infrared Transmittance at Normal Incidence
  0.999,                                  ! Front Side Infrared Hemispherical Emissivity
  0.999,                                  ! Back Side Infrared Hemispherical Emissivity
  299.383;                                ! Conductivity {W/m-K}

OS:Construction,
  {102e547e-33b7-4179-aa75-91a7622e054f}, ! Handle
  90.1-2001 Nonres B3 Skylight without Curb, ! Name
  ,                                       ! Surface Rendering Name
  {f0fa1864-a4b5-489c-8b73-3f1bc93534f0}; ! Layer 1

