
OS:Version,
  {427aae17-9376-46b3-838b-bf36e969db77}, ! Handle
  0.9.3;                                  ! Version Identifier

OS:Construction,
  {2e560122-4c17-4874-a4a4-d034b2dd438e}, ! Handle
  189.1-2009 Nonres 3A Window Nonmetal framing, ! Name
  ,                                       ! Surface Rendering Name
  {84a510f7-7373-46e9-b42e-a202b699cb48}; ! Layer 1

OS:WindowMaterial:Glazing,
  {84a510f7-7373-46e9-b42e-a202b699cb48}, ! Handle
  Theoretical Glass [199],                ! Name
  SpectralAverage,                        ! Optical Data Type
  ,                                       ! Window Glass Spectral Data Set Name
  0.003,                                  ! Thickness {m}
  0.231524,                               ! Solar Transmittance at Normal Incidence
  0.718476,                               ! Front Side Solar Reflectance at Normal Incidence
  0.718476,                               ! Back Side Solar Reflectance at Normal Incidence
  0.319199,                               ! Visible Transmittance at Normal Incidence
  0.630801,                               ! Front Side Visible Reflectance at Normal Incidence
  0.630801,                               ! Back Side Visible Reflectance at Normal Incidence
  0,                                      ! Infrared Transmittance at Normal Incidence
  0.9,                                    ! Front Side Infrared Hemispherical Emissivity
  0.9,                                    ! Back Side Infrared Hemispherical Emissivity
  0.0133137;                              ! Conductivity {W/m-K}

OS:ComponentCost:LineItem,
  {f03c0514-6c70-4f1b-a0c8-79dc0a97efe5}, ! Handle
  189.1-2009 Nonres 3A Window Nonmetal framing, ! Name
  ,                                       ! Type
  Construction,                           ! Line Item Type
  189.1-2009 Nonres 3A Window Nonmetal framing, ! Item Name
  ,                                       ! Object End Use Key
  ,                                       ! Quantity {dimensionless}
  563.991,                                ! Material Cost {$}
  CostPerArea;                            ! Material Cost Units

OS:ComponentData,
  {f420bb67-338f-4034-a286-064f2ddfe833}, ! Handle
  Component Data 1,                       ! Name
  {fc26b1e2-47db-4c88-9657-62d4bc1bd0bf}, ! UUID
  {fe6d745d-a66d-4d54-9cc3-4077c34bad9a}, ! Version UUID
  1363980937,                             ! Creation Timestamp
  1363980937,                             ! Version Timestamp
  {2e560122-4c17-4874-a4a4-d034b2dd438e}, ! Name of Object 1
  {84a510f7-7373-46e9-b42e-a202b699cb48}, ! Name of Object 2
  {f03c0514-6c70-4f1b-a0c8-79dc0a97efe5}; ! Name of Object 3

