
OS:Version,
  {2918f410-2516-4065-a8dc-fa350ba8bc4f}, ! Handle
  0.9.3;                                  ! Version Identifier

OS:ComponentCost:LineItem,
  {37689dc6-c5d8-4a66-ad36-e2a2ff38f5fe}, ! Handle
  189.1-2009 Nonres 3A Window Nonmetal framing, ! Name
  ,                                       ! Type
  Construction,                           ! Line Item Type
  189.1-2009 Nonres 3A Window Nonmetal framing, ! Item Name
  ,                                       ! Object End Use Key
  ,                                       ! Quantity {dimensionless}
  563.991,                                ! Material Cost {$}
  CostPerArea;                            ! Material Cost Units

OS:Construction,
  {6cd95dcb-4de0-467f-9c83-301bb32875e2}, ! Handle
  189.1-2009 Nonres 3A Window Nonmetal framing, ! Name
  ,                                       ! Surface Rendering Name
  {08d33f67-e16f-470b-aa60-7408adc448f2}; ! Layer 1

OS:WindowMaterial:Glazing,
  {08d33f67-e16f-470b-aa60-7408adc448f2}, ! Handle
  Theoretical Glass [199],                ! Name
  SpectralAverage,                        ! Optical Data Type
  ,                                       ! Window Glass Spectral Data Set Name
  0.003,                                  ! Thickness {m}
  0.231524,                               ! Solar Transmittance at Normal Incidence
  0.718476,                               ! Front Side Solar Reflectance at Normal Incidence
  0.718476,                               ! Back Side Solar Reflectance at Normal Incidence
  0.319199,                               ! Visible Transmittance at Normal Incidence
  0.630801,                               ! Front Side Visible Reflectance at Normal Incidence
  0.630801,                               ! Back Side Visible Reflectance at Normal Incidence
  0,                                      ! Infrared Transmittance at Normal Incidence
  0.9,                                    ! Front Side Infrared Hemispherical Emissivity
  0.9,                                    ! Back Side Infrared Hemispherical Emissivity
  0.0133137;                              ! Conductivity {W/m-K}

