
OS:Version,
  {3f7bd519-0bab-4ec8-9fea-97b6f48dc1ae}, ! Handle
  0.9.3;                                  ! Version Identifier

OS:Construction,
  {02fd38c3-8326-4c5d-a03c-5619b9ffee71}, ! Handle
  90.1-1999 Res B26 Ext Wall Steel-Framed, ! Name
  ,                                       ! Surface Rendering Name
  {cfa5df77-c209-4fee-bead-40146cdfbe1b}, ! Layer 1
  {cbe1297a-49a3-4f52-ae4a-a1143bdc5dbe}, ! Layer 2
  {03a867d0-310f-48fc-ae00-88785e6f7fd8}; ! Layer 3

OS:Material:NoMass,
  {cfa5df77-c209-4fee-bead-40146cdfbe1b}, ! Handle
  MAT-SHEATH,                             ! Name
  Rough,                                  ! Roughness
  0.36256,                                ! Thermal Resistance {m2-K/W}
  0.9,                                    ! Thermal Absorptance
  0.7,                                    ! Solar Absorptance
  0.7;                                    ! Visible Absorptance

OS:Material,
  {cbe1297a-49a3-4f52-ae4a-a1143bdc5dbe}, ! Handle
  Wall Insulation [18],                   ! Name
  MediumRough,                            ! Roughness
  0.171309,                               ! Thickness {m}
  0.045,                                  ! Conductivity {W/m-K}
  265,                                    ! Density {kg/m3}
  836.8,                                  ! Specific Heat {J/kg-K}
  0.9,                                    ! Thermal Absorptance
  0.7,                                    ! Solar Absorptance
  0.7;                                    ! Visible Absorptance

OS:Material,
  {03a867d0-310f-48fc-ae00-88785e6f7fd8}, ! Handle
  1/2IN Gypsum,                           ! Name
  Smooth,                                 ! Roughness
  0.01271,                                ! Thickness {m}
  0.16,                                   ! Conductivity {W/m-K}
  784.9,                                  ! Density {kg/m3}
  830,                                    ! Specific Heat {J/kg-K}
  0.9,                                    ! Thermal Absorptance
  0.92,                                   ! Solar Absorptance
  0.92;                                   ! Visible Absorptance

OS:ComponentCost:LineItem,
  {63d59ee7-46a3-4c72-9221-1e3e564ce321}, ! Handle
  90.1-1999 Res B26 Ext Wall Steel-Framed, ! Name
  ,                                       ! Type
  Construction,                           ! Line Item Type
  90.1-1999 Res B26 Ext Wall Steel-Framed, ! Item Name
  ,                                       ! Object End Use Key
  ,                                       ! Quantity {dimensionless}
  102.52,                                 ! Material Cost {$}
  CostPerArea;                            ! Material Cost Units

