
OS:Version,
  {55755241-b509-43f4-b7ed-367e22242ba8}, ! Handle
  0.9.3;                                  ! Version Identifier

OS:Material,
  {d320fc6a-c707-4455-9e88-6fae4b4f8a76}, ! Handle
  MAT-CC05 8 HW CONCRETE,                 ! Name
  Rough,                                  ! Roughness
  0.20321,                                ! Thickness {m}
  1.311,                                  ! Conductivity {W/m-K}
  2240,                                   ! Density {kg/m3}
  836.8,                                  ! Specific Heat {J/kg-K}
  0.9,                                    ! Thermal Absorptance
  0.7,                                    ! Solar Absorptance
  0.7;                                    ! Visible Absorptance

OS:Construction,
  {56e4f674-5b12-41fc-9140-06a4467bd055}, ! Handle
  189.1-2009 Res 1A Ext Slab Unheated - 8in Slab without Carpet, ! Name
  ,                                       ! Surface Rendering Name
  {d320fc6a-c707-4455-9e88-6fae4b4f8a76}; ! Layer 1

OS:ComponentCost:LineItem,
  {6364bdb9-2a7c-4568-997f-51a5585ee233}, ! Handle
  189.1-2009 Res 1A Ext Slab Unheated - 8in Slab without Carpet, ! Name
  ,                                       ! Type
  Construction,                           ! Line Item Type
  189.1-2009 Res 1A Ext Slab Unheated - 8in Slab without Carpet, ! Item Name
  ,                                       ! Object End Use Key
  ,                                       ! Quantity {dimensionless}
  45.52,                                  ! Material Cost {$}
  CostPerArea;                            ! Material Cost Units

