
OS:Version,
  {872fe753-2a1b-4489-8751-52a8da629732}, ! Handle
  0.9.3;                                  ! Version Identifier

OS:Construction,
  {7b94186f-b734-42b5-a356-bbf334e3de3a}, ! Handle
  90.1-2001 Nonres B26 Ext Wall Metal Building, ! Name
  ,                                       ! Surface Rendering Name
  {ac1b6b60-2d5f-4244-9e43-b092b8fd8fda}, ! Layer 1
  {a392e7c7-bebc-45f7-bd4b-5e890177e5fa}, ! Layer 2
  {604517d0-4578-478b-bd54-e66ce4a28dd5}; ! Layer 3

OS:Material,
  {ac1b6b60-2d5f-4244-9e43-b092b8fd8fda}, ! Handle
  Metal Siding,                           ! Name
  Smooth,                                 ! Roughness
  0.0015,                                 ! Thickness {m}
  44.96,                                  ! Conductivity {W/m-K}
  7688.86,                                ! Density {kg/m3}
  410,                                    ! Specific Heat {J/kg-K}
  0.9,                                    ! Thermal Absorptance
  0.2,                                    ! Solar Absorptance
  0.2;                                    ! Visible Absorptance

OS:Material,
  {a392e7c7-bebc-45f7-bd4b-5e890177e5fa}, ! Handle
  Wall Insulation [9],                    ! Name
  MediumRough,                            ! Roughness
  0.128642,                               ! Thickness {m}
  0.045,                                  ! Conductivity {W/m-K}
  265,                                    ! Density {kg/m3}
  836.8,                                  ! Specific Heat {J/kg-K}
  0.9,                                    ! Thermal Absorptance
  0.7,                                    ! Solar Absorptance
  0.7;                                    ! Visible Absorptance

OS:Material,
  {604517d0-4578-478b-bd54-e66ce4a28dd5}, ! Handle
  1/2IN Gypsum,                           ! Name
  Smooth,                                 ! Roughness
  0.01271,                                ! Thickness {m}
  0.16,                                   ! Conductivity {W/m-K}
  784.9,                                  ! Density {kg/m3}
  830,                                    ! Specific Heat {J/kg-K}
  0.9,                                    ! Thermal Absorptance
  0.92,                                   ! Solar Absorptance
  0.92;                                   ! Visible Absorptance

OS:ComponentCost:LineItem,
  {d168b7f0-897d-49af-bb00-7b305c46807e}, ! Handle
  90.1-2001 Nonres B26 Ext Wall Metal Building, ! Name
  ,                                       ! Type
  Construction,                           ! Line Item Type
  90.1-2001 Nonres B26 Ext Wall Metal Building, ! Item Name
  ,                                       ! Object End Use Key
  ,                                       ! Quantity {dimensionless}
  107.698,                                ! Material Cost {$}
  CostPerArea;                            ! Material Cost Units

