
OS:Version,
  {0762d4fc-6a36-411b-a027-68f135c6e401}, ! Handle
  0.9.3;                                  ! Version Identifier

OS:Material,
  {5d22fa05-0398-4ba1-9e7d-023de6e45a6a}, ! Handle
  GP01 1/2 GYPSUM,                        ! Name
  Smooth,                                 ! Roughness
  0.01271,                                ! Thickness {m}
  0.16,                                   ! Conductivity {W/m-K}
  800,                                    ! Density {kg/m3}
  1090,                                   ! Specific Heat {J/kg-K}
  0.9,                                    ! Thermal Absorptance
  0.7,                                    ! Solar Absorptance
  0.5;                                    ! Visible Absorptance

OS:ComponentCost:LineItem,
  {5061ca47-113c-47ef-b24c-5348eb002471}, ! Handle
  Title 24-2008 Nonres 12 Int Wall,       ! Name
  ,                                       ! Type
  Construction,                           ! Line Item Type
  Title 24-2008 Nonres 12 Int Wall,       ! Item Name
  ,                                       ! Object End Use Key
  ,                                       ! Quantity {dimensionless}
  0,                                      ! Material Cost {$}
  CostPerArea;                            ! Material Cost Units

OS:Construction,
  {29107933-6d34-462a-9e69-48f8ae643b4d}, ! Handle
  Title 24-2008 Nonres 12 Int Wall,       ! Name
  ,                                       ! Surface Rendering Name
  {5d22fa05-0398-4ba1-9e7d-023de6e45a6a}, ! Layer 1
  {5d22fa05-0398-4ba1-9e7d-023de6e45a6a}; ! Layer 2

OS:Material,
  {4323fd8b-5545-4584-98a3-61fd52517a00}, ! Handle
  GP01 1/2 GYPSUM 1,                      ! Name
  Smooth,                                 ! Roughness
  0.01271,                                ! Thickness {m}
  0.16,                                   ! Conductivity {W/m-K}
  800,                                    ! Density {kg/m3}
  1090,                                   ! Specific Heat {J/kg-K}
  0.9,                                    ! Thermal Absorptance
  0.7,                                    ! Solar Absorptance
  0.5;                                    ! Visible Absorptance

