
OS:Version,
  {1c24c9e2-971e-4ae4-ab70-eefada774cbf}, ! Handle
  0.9.3;                                  ! Version Identifier

OS:Material,
  {7092e3f2-86ea-46ed-b463-7101caa3d654}, ! Handle
  Metal Siding,                           ! Name
  Smooth,                                 ! Roughness
  0.0015,                                 ! Thickness {m}
  44.96,                                  ! Conductivity {W/m-K}
  7688.86,                                ! Density {kg/m3}
  410,                                    ! Specific Heat {J/kg-K}
  0.9,                                    ! Thermal Absorptance
  0.2,                                    ! Solar Absorptance
  0.2;                                    ! Visible Absorptance

OS:ComponentCost:LineItem,
  {05692e33-9fd3-4717-8a0d-d1bc7ffa5cd0}, ! Handle
  90.1-2007 Res 6B Ext Wall Metal Building, ! Name
  ,                                       ! Type
  Construction,                           ! Line Item Type
  90.1-2007 Res 6B Ext Wall Metal Building, ! Item Name
  ,                                       ! Object End Use Key
  ,                                       ! Quantity {dimensionless}
  107.702,                                ! Material Cost {$}
  CostPerArea;                            ! Material Cost Units

OS:Material,
  {998b059c-0bad-4d6e-8a58-cbed5c7e3a62}, ! Handle
  1/2IN Gypsum,                           ! Name
  Smooth,                                 ! Roughness
  0.01271,                                ! Thickness {m}
  0.16,                                   ! Conductivity {W/m-K}
  784.9,                                  ! Density {kg/m3}
  830,                                    ! Specific Heat {J/kg-K}
  0.9,                                    ! Thermal Absorptance
  0.92,                                   ! Solar Absorptance
  0.92;                                   ! Visible Absorptance

OS:Material,
  {e9e4ff24-8140-40bc-9464-246873ec48ec}, ! Handle
  Wall Insulation [20],                   ! Name
  MediumRough,                            ! Roughness
  0.128688,                               ! Thickness {m}
  0.045,                                  ! Conductivity {W/m-K}
  265,                                    ! Density {kg/m3}
  836.8,                                  ! Specific Heat {J/kg-K}
  0.9,                                    ! Thermal Absorptance
  0.7,                                    ! Solar Absorptance
  0.7;                                    ! Visible Absorptance

OS:Construction,
  {ff5cf1e0-7afc-489e-b270-1388c713c0fb}, ! Handle
  90.1-2007 Res 6B Ext Wall Metal Building, ! Name
  ,                                       ! Surface Rendering Name
  {7092e3f2-86ea-46ed-b463-7101caa3d654}, ! Layer 1
  {e9e4ff24-8140-40bc-9464-246873ec48ec}, ! Layer 2
  {998b059c-0bad-4d6e-8a58-cbed5c7e3a62}; ! Layer 3

