
OS:Version,
  {716e87ea-7c40-4452-96e4-c04a150adcd7}, ! Handle
  0.9.3;                                  ! Version Identifier

OS:Construction,
  {d662d0d9-8e3d-4d36-908d-042a8175b22f}, ! Handle
  90.1-2007 Res 6B Ext Wall Metal Building, ! Name
  ,                                       ! Surface Rendering Name
  {0b48bd59-e30b-4f35-aea5-206dceeaa382}, ! Layer 1
  {7b437195-7cfc-457a-af44-06854aa7c07e}, ! Layer 2
  {d02073d6-3cb4-4000-84b2-cb97cb602fc9}; ! Layer 3

OS:Material,
  {0b48bd59-e30b-4f35-aea5-206dceeaa382}, ! Handle
  Metal Siding,                           ! Name
  Smooth,                                 ! Roughness
  0.0015,                                 ! Thickness {m}
  44.96,                                  ! Conductivity {W/m-K}
  7688.86,                                ! Density {kg/m3}
  410,                                    ! Specific Heat {J/kg-K}
  0.9,                                    ! Thermal Absorptance
  0.2,                                    ! Solar Absorptance
  0.2;                                    ! Visible Absorptance

OS:Material,
  {7b437195-7cfc-457a-af44-06854aa7c07e}, ! Handle
  Wall Insulation [20],                   ! Name
  MediumRough,                            ! Roughness
  0.128688,                               ! Thickness {m}
  0.045,                                  ! Conductivity {W/m-K}
  265,                                    ! Density {kg/m3}
  836.8,                                  ! Specific Heat {J/kg-K}
  0.9,                                    ! Thermal Absorptance
  0.7,                                    ! Solar Absorptance
  0.7;                                    ! Visible Absorptance

OS:Material,
  {d02073d6-3cb4-4000-84b2-cb97cb602fc9}, ! Handle
  1/2IN Gypsum,                           ! Name
  Smooth,                                 ! Roughness
  0.01271,                                ! Thickness {m}
  0.16,                                   ! Conductivity {W/m-K}
  784.9,                                  ! Density {kg/m3}
  830,                                    ! Specific Heat {J/kg-K}
  0.9,                                    ! Thermal Absorptance
  0.92,                                   ! Solar Absorptance
  0.92;                                   ! Visible Absorptance

OS:ComponentCost:LineItem,
  {27cd5aa6-580b-4e70-9c13-9fd5aa75b238}, ! Handle
  90.1-2007 Res 6B Ext Wall Metal Building, ! Name
  ,                                       ! Type
  Construction,                           ! Line Item Type
  90.1-2007 Res 6B Ext Wall Metal Building, ! Item Name
  ,                                       ! Object End Use Key
  ,                                       ! Quantity {dimensionless}
  107.702,                                ! Material Cost {$}
  CostPerArea;                            ! Material Cost Units

OS:ComponentData,
  {b9529131-de0b-401f-853a-02aae5fd6ca0}, ! Handle
  Component Data 1,                       ! Name
  {ba29e1cf-7183-4144-94c6-4f6b92f03ecd}, ! UUID
  {9830fb87-0ef8-4d3d-9d64-4ad9327af7de}, ! Version UUID
  1363981864,                             ! Creation Timestamp
  1363981864,                             ! Version Timestamp
  {d662d0d9-8e3d-4d36-908d-042a8175b22f}, ! Name of Object 1
  {0b48bd59-e30b-4f35-aea5-206dceeaa382}, ! Name of Object 2
  {7b437195-7cfc-457a-af44-06854aa7c07e}, ! Name of Object 3
  {d02073d6-3cb4-4000-84b2-cb97cb602fc9}, ! Name of Object 4
  {27cd5aa6-580b-4e70-9c13-9fd5aa75b238}; ! Name of Object 5

