
OS:Version,
  {a1ccad47-6939-4ab0-8534-3d26a63a0ee3}, ! Handle
  0.9.3;                                  ! Version Identifier

OS:Construction,
  {180a7c4d-83c5-4e76-9acc-a6407e02e2fc}, ! Handle
  90.1-2004 Res 5B Roof IEAD,             ! Name
  ,                                       ! Surface Rendering Name
  {d691bf67-cb87-485a-8165-9e145313a381}, ! Layer 1
  {256147cd-1678-4e40-9212-a5c7034b7401}, ! Layer 2
  {901814de-452e-4770-9117-9e774cacb8ea}; ! Layer 3

OS:Material,
  {d691bf67-cb87-485a-8165-9e145313a381}, ! Handle
  Roof Membrane,                          ! Name
  VeryRough,                              ! Roughness
  0.0095,                                 ! Thickness {m}
  0.16,                                   ! Conductivity {W/m-K}
  1121.29,                                ! Density {kg/m3}
  1460,                                   ! Specific Heat {J/kg-K}
  0.9,                                    ! Thermal Absorptance
  0.7,                                    ! Solar Absorptance
  0.7;                                    ! Visible Absorptance

OS:Material,
  {256147cd-1678-4e40-9212-a5c7034b7401}, ! Handle
  Roof Insulation,                        ! Name
  MediumRough,                            ! Roughness
  0.124958,                               ! Thickness {m}
  0.049,                                  ! Conductivity {W/m-K}
  265,                                    ! Density {kg/m3}
  836.8,                                  ! Specific Heat {J/kg-K}
  0.9,                                    ! Thermal Absorptance
  0.7,                                    ! Solar Absorptance
  0.7;                                    ! Visible Absorptance

OS:Material,
  {901814de-452e-4770-9117-9e774cacb8ea}, ! Handle
  Metal Decking,                          ! Name
  MediumSmooth,                           ! Roughness
  0.001524,                               ! Thickness {m}
  45.006,                                 ! Conductivity {W/m-K}
  7680,                                   ! Density {kg/m3}
  418.4,                                  ! Specific Heat {J/kg-K}
  0.9,                                    ! Thermal Absorptance
  0.7,                                    ! Solar Absorptance
  0.3;                                    ! Visible Absorptance

OS:ComponentCost:LineItem,
  {a280d7d0-d3a1-43ca-a3c8-b3531da11991}, ! Handle
  90.1-2004 Res 5B Roof IEAD,             ! Name
  ,                                       ! Type
  Construction,                           ! Line Item Type
  90.1-2004 Res 5B Roof IEAD,             ! Item Name
  ,                                       ! Object End Use Key
  ,                                       ! Quantity {dimensionless}
  49.208,                                 ! Material Cost {$}
  CostPerArea;                            ! Material Cost Units

OS:ComponentData,
  {ec2c1edd-7412-4679-8b16-496559e2fdce}, ! Handle
  Component Data 1,                       ! Name
  {0e15ed53-e469-4eb5-b2ac-7d2a0be7634b}, ! UUID
  {f62834df-99d6-4df0-bda5-09969c7e3627}, ! Version UUID
  1363981743,                             ! Creation Timestamp
  1363981743,                             ! Version Timestamp
  {180a7c4d-83c5-4e76-9acc-a6407e02e2fc}, ! Name of Object 1
  {d691bf67-cb87-485a-8165-9e145313a381}, ! Name of Object 2
  {256147cd-1678-4e40-9212-a5c7034b7401}, ! Name of Object 3
  {901814de-452e-4770-9117-9e774cacb8ea}, ! Name of Object 4
  {a280d7d0-d3a1-43ca-a3c8-b3531da11991}; ! Name of Object 5

