
OS:Version,
  {179ef5bd-d152-4ce9-a3f8-21801f5e1007}, ! Handle
  0.9.3;                                  ! Version Identifier

OS:Construction,
  {390ee003-c963-4ec7-8ce4-dc8be68846eb}, ! Handle
  90.1-2007 Res 6B Int Wall,              ! Name
  ,                                       ! Surface Rendering Name
  {89d11557-b782-424e-abcf-2e3e0b0a2037}, ! Layer 1
  {89d11557-b782-424e-abcf-2e3e0b0a2037}; ! Layer 2

OS:Material,
  {89d11557-b782-424e-abcf-2e3e0b0a2037}, ! Handle
  GP01 1/2 GYPSUM,                        ! Name
  Smooth,                                 ! Roughness
  0.01271,                                ! Thickness {m}
  0.16,                                   ! Conductivity {W/m-K}
  800,                                    ! Density {kg/m3}
  1090,                                   ! Specific Heat {J/kg-K}
  0.9,                                    ! Thermal Absorptance
  0.7,                                    ! Solar Absorptance
  0.5;                                    ! Visible Absorptance

OS:ComponentCost:LineItem,
  {3c230392-b35a-4c1e-84bc-b5a308d87ba8}, ! Handle
  90.1-2007 Res 6B Int Wall,              ! Name
  ,                                       ! Type
  Construction,                           ! Line Item Type
  90.1-2007 Res 6B Int Wall,              ! Item Name
  ,                                       ! Object End Use Key
  ,                                       ! Quantity {dimensionless}
  0,                                      ! Material Cost {$}
  CostPerArea;                            ! Material Cost Units

OS:Material,
  {5a8cfd55-3ef8-4986-9bf6-617a8b1db2f1}, ! Handle
  GP01 1/2 GYPSUM 1,                      ! Name
  Smooth,                                 ! Roughness
  0.01271,                                ! Thickness {m}
  0.16,                                   ! Conductivity {W/m-K}
  800,                                    ! Density {kg/m3}
  1090,                                   ! Specific Heat {J/kg-K}
  0.9,                                    ! Thermal Absorptance
  0.7,                                    ! Solar Absorptance
  0.5;                                    ! Visible Absorptance

