
OS:Version,
  {21fe4e0c-f544-454d-aa98-c0383e5f342e}, !- Handle
  1.1.0;                                  !- Version Identifier

OS:Construction,
  {1cd3bf00-9b9a-42c9-8f0f-aaebe1b22aaf}, !- Handle
  Dbl Clr Low Iron 5mm/13mm Arg,          !- Name
  ,                                       !- Surface Rendering Name
  {55edfc58-bc37-4a87-a866-c8765b3923f1}, !- Layer 1
  {a4848eaa-f88c-476c-9156-d89186b1d4b8}, !- Layer 2
  {55edfc58-bc37-4a87-a866-c8765b3923f1}; !- Layer 3

OS:WindowMaterial:Glazing,
  {55edfc58-bc37-4a87-a866-c8765b3923f1}, !- Handle
  LOW IRON 5MM,                           !- Name
  SpectralAverage,                        !- Optical Data Type
  ,                                       !- Window Glass Spectral Data Set Name
  0.005,                                  !- Thickness {m}
  0.889,                                  !- Solar Transmittance at Normal Incidence
  0.079,                                  !- Front Side Solar Reflectance at Normal Incidence
  0.079,                                  !- Back Side Solar Reflectance at Normal Incidence
  0.91,                                   !- Visible Transmittance at Normal Incidence
  0.082,                                  !- Front Side Visible Reflectance at Normal Incidence
  0.082,                                  !- Back Side Visible Reflectance at Normal Incidence
  0,                                      !- Infrared Transmittance at Normal Incidence
  0.84,                                   !- Front Side Infrared Hemispherical Emissivity
  0.84,                                   !- Back Side Infrared Hemispherical Emissivity
  0.9;                                    !- Conductivity {W/m-K}

OS:WindowMaterial:Gas,
  {a4848eaa-f88c-476c-9156-d89186b1d4b8}, !- Handle
  ARGON 13MM,                             !- Name
  Argon,                                  !- Gas Type
  0.0127;                                 !- Thickness {m}

