
OS:Version,
  {cc72ae1d-c5e5-4572-94c8-1f59476477db}, ! Handle
  0.9.3;                                  ! Version Identifier

OS:ComponentCost:LineItem,
  {cd0bf2f8-1937-4c51-ade7-b84cecf81023}, ! Handle
  90.1-2001 Res B16 Window Fixed,         ! Name
  ,                                       ! Type
  Construction,                           ! Line Item Type
  90.1-2001 Res B16 Window Fixed,         ! Item Name
  ,                                       ! Object End Use Key
  ,                                       ! Quantity {dimensionless}
  554.2,                                  ! Material Cost {$}
  CostPerArea;                            ! Material Cost Units

OS:Construction,
  {0f404761-e94e-4492-9a47-9af727c9d625}, ! Handle
  90.1-2001 Res B16 Window Fixed,         ! Name
  ,                                       ! Surface Rendering Name
  {afe88bc9-4379-4419-9e31-ad89470ccb90}; ! Layer 1

OS:WindowMaterial:Glazing,
  {afe88bc9-4379-4419-9e31-ad89470ccb90}, ! Handle
  Theoretical Glass [86],                 ! Name
  SpectralAverage,                        ! Optical Data Type
  ,                                       ! Window Glass Spectral Data Set Name
  0.003,                                  ! Thickness {m}
  0.341155,                               ! Solar Transmittance at Normal Incidence
  0.608845,                               ! Front Side Solar Reflectance at Normal Incidence
  0.608845,                               ! Back Side Solar Reflectance at Normal Incidence
  0.360158,                               ! Visible Transmittance at Normal Incidence
  0.589842,                               ! Front Side Visible Reflectance at Normal Incidence
  0.589842,                               ! Back Side Visible Reflectance at Normal Incidence
  0,                                      ! Infrared Transmittance at Normal Incidence
  0.9,                                    ! Front Side Infrared Hemispherical Emissivity
  0.9,                                    ! Back Side Infrared Hemispherical Emissivity
  0.013781;                               ! Conductivity {W/m-K}

