
OS:Version,
  {d86033ff-5760-4774-88fa-0b12caae96b0}, ! Handle
  0.9.3;                                  ! Version Identifier

OS:Material,
  {6b65b7f4-f962-46b7-9606-7a27f3d4f083}, ! Handle
  Wall Insulation [38],                   ! Name
  MediumRough,                            ! Roughness
  0.139618,                               ! Thickness {m}
  0.045,                                  ! Conductivity {W/m-K}
  265,                                    ! Density {kg/m3}
  836.8,                                  ! Specific Heat {J/kg-K}
  0.9,                                    ! Thermal Absorptance
  0.7,                                    ! Solar Absorptance
  0.7;                                    ! Visible Absorptance

OS:Construction,
  {a1d26233-7058-43e7-af5b-23a1fc63539f}, ! Handle
  189.1-2009 Res 5B Ext Wall Metal Building, ! Name
  ,                                       ! Surface Rendering Name
  {b392ddac-f490-4ba3-b283-0e0793656eb7}, ! Layer 1
  {6b65b7f4-f962-46b7-9606-7a27f3d4f083}, ! Layer 2
  {341820c6-98ec-4331-8055-7c2214721630}; ! Layer 3

OS:Material,
  {b392ddac-f490-4ba3-b283-0e0793656eb7}, ! Handle
  Metal Siding,                           ! Name
  Smooth,                                 ! Roughness
  0.0015,                                 ! Thickness {m}
  44.96,                                  ! Conductivity {W/m-K}
  7688.86,                                ! Density {kg/m3}
  410,                                    ! Specific Heat {J/kg-K}
  0.9,                                    ! Thermal Absorptance
  0.2,                                    ! Solar Absorptance
  0.2;                                    ! Visible Absorptance

OS:Material,
  {341820c6-98ec-4331-8055-7c2214721630}, ! Handle
  1/2IN Gypsum,                           ! Name
  Smooth,                                 ! Roughness
  0.01271,                                ! Thickness {m}
  0.16,                                   ! Conductivity {W/m-K}
  784.9,                                  ! Density {kg/m3}
  830,                                    ! Specific Heat {J/kg-K}
  0.9,                                    ! Thermal Absorptance
  0.92,                                   ! Solar Absorptance
  0.92;                                   ! Visible Absorptance

OS:ComponentCost:LineItem,
  {ed6425a4-1c62-4999-a00c-b4784ace2c32}, ! Handle
  189.1-2009 Res 5B Ext Wall Metal Building, ! Name
  ,                                       ! Type
  Construction,                           ! Line Item Type
  189.1-2009 Res 5B Ext Wall Metal Building, ! Item Name
  ,                                       ! Object End Use Key
  ,                                       ! Quantity {dimensionless}
  110.41,                                 ! Material Cost {$}
  CostPerArea;                            ! Material Cost Units

