
OS:Version,
  {7588acdb-3776-4199-bb9b-2ff9f780863b}, ! Handle
  0.9.3;                                  ! Version Identifier

OS:Construction,
  {8218dcaa-bf17-4b15-926d-c5e6518e3a15}, ! Handle
  AEDG-SmOffice 6B Ext Slab Unheated - 8in Slab with Carpet, ! Name
  ,                                       ! Surface Rendering Name
  {fdbb6958-2b89-4f80-af55-1551e0dd496f}, ! Layer 1
  {f705181c-d900-4a9a-977b-63c039b5bef7}; ! Layer 2

OS:Material,
  {fdbb6958-2b89-4f80-af55-1551e0dd496f}, ! Handle
  MAT-CC05 8 HW CONCRETE,                 ! Name
  Rough,                                  ! Roughness
  0.20321,                                ! Thickness {m}
  1.311,                                  ! Conductivity {W/m-K}
  2240,                                   ! Density {kg/m3}
  836.8,                                  ! Specific Heat {J/kg-K}
  0.9,                                    ! Thermal Absorptance
  0.7,                                    ! Solar Absorptance
  0.7;                                    ! Visible Absorptance

OS:Material:NoMass,
  {f705181c-d900-4a9a-977b-63c039b5bef7}, ! Handle
  CP02 CARPET PAD,                        ! Name
  VeryRough,                              ! Roughness
  0.21648,                                ! Thermal Resistance {m2-K/W}
  0.9,                                    ! Thermal Absorptance
  0.7,                                    ! Solar Absorptance
  0.8;                                    ! Visible Absorptance

OS:ComponentCost:LineItem,
  {6e4efaa8-4b62-4ed0-b87d-826714576d82}, ! Handle
  AEDG-SmOffice 6B Ext Slab Unheated - 8in Slab with Carpet, ! Name
  ,                                       ! Type
  Construction,                           ! Line Item Type
  AEDG-SmOffice 6B Ext Slab Unheated - 8in Slab with Carpet, ! Item Name
  ,                                       ! Object End Use Key
  ,                                       ! Quantity {dimensionless}
  45.52,                                  ! Material Cost {$}
  CostPerArea;                            ! Material Cost Units

