
OS:Version,
  {094d2f61-ef4e-4cfc-b90c-ee6a298cc5ab}, ! Handle
  0.9.3;                                  ! Version Identifier

OS:ComponentCost:LineItem,
  {58998039-f5c6-4e1a-9665-e0813dec0d27}, ! Handle
  AEDG-SmOffice 4B Roof IEAD,             ! Name
  ,                                       ! Type
  Construction,                           ! Line Item Type
  AEDG-SmOffice 4B Roof IEAD,             ! Item Name
  ,                                       ! Object End Use Key
  ,                                       ! Quantity {dimensionless}
  52.896,                                 ! Material Cost {$}
  CostPerArea;                            ! Material Cost Units

OS:Material,
  {73d0f100-375c-427b-a5c3-f00071e1b045}, ! Handle
  Metal Decking,                          ! Name
  MediumSmooth,                           ! Roughness
  0.001524,                               ! Thickness {m}
  45.006,                                 ! Conductivity {W/m-K}
  7680,                                   ! Density {kg/m3}
  418.4,                                  ! Specific Heat {J/kg-K}
  0.9,                                    ! Thermal Absorptance
  0.7,                                    ! Solar Absorptance
  0.3;                                    ! Visible Absorptance

OS:Material,
  {2084613b-fbbb-46c6-adc8-953751ffd8a6}, ! Handle
  Roof Insulation [7],                    ! Name
  MediumRough,                            ! Roughness
  0.167563,                               ! Thickness {m}
  0.049,                                  ! Conductivity {W/m-K}
  265,                                    ! Density {kg/m3}
  836.8,                                  ! Specific Heat {J/kg-K}
  0.9,                                    ! Thermal Absorptance
  0.7,                                    ! Solar Absorptance
  0.7;                                    ! Visible Absorptance

OS:Construction,
  {a1d6ba99-1255-4574-8092-564cc724fdb4}, ! Handle
  AEDG-SmOffice 4B Roof IEAD,             ! Name
  ,                                       ! Surface Rendering Name
  {b0f94df0-f5e7-4558-bb5c-9548610db333}, ! Layer 1
  {2084613b-fbbb-46c6-adc8-953751ffd8a6}, ! Layer 2
  {73d0f100-375c-427b-a5c3-f00071e1b045}; ! Layer 3

OS:Material,
  {b0f94df0-f5e7-4558-bb5c-9548610db333}, ! Handle
  Roof Membrane,                          ! Name
  VeryRough,                              ! Roughness
  0.0095,                                 ! Thickness {m}
  0.16,                                   ! Conductivity {W/m-K}
  1121.29,                                ! Density {kg/m3}
  1460,                                   ! Specific Heat {J/kg-K}
  0.9,                                    ! Thermal Absorptance
  0.7,                                    ! Solar Absorptance
  0.7;                                    ! Visible Absorptance

