
OS:Version,
  {e4d8d3c5-bd8b-48e9-b24d-34f1d0510d92}, ! Handle
  0.9.3;                                  ! Version Identifier

OS:Construction,
  {c3b7f4ef-d7c5-4f17-986d-eea2260e0570}, ! Handle
  AEDG-SmOffice 4B Roof IEAD,             ! Name
  ,                                       ! Surface Rendering Name
  {9c5a0168-09f8-47cc-8a7d-010de0900f14}, ! Layer 1
  {06f9d3ec-2e0a-4e12-b180-31af6042c08c}, ! Layer 2
  {c04b1580-efad-4b90-8e8f-a950d213dde5}; ! Layer 3

OS:Material,
  {9c5a0168-09f8-47cc-8a7d-010de0900f14}, ! Handle
  Roof Membrane,                          ! Name
  VeryRough,                              ! Roughness
  0.0095,                                 ! Thickness {m}
  0.16,                                   ! Conductivity {W/m-K}
  1121.29,                                ! Density {kg/m3}
  1460,                                   ! Specific Heat {J/kg-K}
  0.9,                                    ! Thermal Absorptance
  0.7,                                    ! Solar Absorptance
  0.7;                                    ! Visible Absorptance

OS:Material,
  {06f9d3ec-2e0a-4e12-b180-31af6042c08c}, ! Handle
  Roof Insulation [7],                    ! Name
  MediumRough,                            ! Roughness
  0.167563,                               ! Thickness {m}
  0.049,                                  ! Conductivity {W/m-K}
  265,                                    ! Density {kg/m3}
  836.8,                                  ! Specific Heat {J/kg-K}
  0.9,                                    ! Thermal Absorptance
  0.7,                                    ! Solar Absorptance
  0.7;                                    ! Visible Absorptance

OS:Material,
  {c04b1580-efad-4b90-8e8f-a950d213dde5}, ! Handle
  Metal Decking,                          ! Name
  MediumSmooth,                           ! Roughness
  0.001524,                               ! Thickness {m}
  45.006,                                 ! Conductivity {W/m-K}
  7680,                                   ! Density {kg/m3}
  418.4,                                  ! Specific Heat {J/kg-K}
  0.9,                                    ! Thermal Absorptance
  0.7,                                    ! Solar Absorptance
  0.3;                                    ! Visible Absorptance

OS:ComponentCost:LineItem,
  {352905c1-6d59-4064-850b-dd6018d23918}, ! Handle
  AEDG-SmOffice 4B Roof IEAD,             ! Name
  ,                                       ! Type
  Construction,                           ! Line Item Type
  AEDG-SmOffice 4B Roof IEAD,             ! Item Name
  ,                                       ! Object End Use Key
  ,                                       ! Quantity {dimensionless}
  52.896,                                 ! Material Cost {$}
  CostPerArea;                            ! Material Cost Units

OS:ComponentData,
  {c077a3a7-bf3c-42ec-96c6-341f120787a2}, ! Handle
  Component Data 1,                       ! Name
  {3ca66e9d-2459-4146-a64a-532db550e6d8}, ! UUID
  {db2614fc-06d8-4d93-aef8-b4a52aba59ac}, ! Version UUID
  1363981949,                             ! Creation Timestamp
  1363981949,                             ! Version Timestamp
  {c3b7f4ef-d7c5-4f17-986d-eea2260e0570}, ! Name of Object 1
  {9c5a0168-09f8-47cc-8a7d-010de0900f14}, ! Name of Object 2
  {06f9d3ec-2e0a-4e12-b180-31af6042c08c}, ! Name of Object 3
  {c04b1580-efad-4b90-8e8f-a950d213dde5}, ! Name of Object 4
  {352905c1-6d59-4064-850b-dd6018d23918}; ! Name of Object 5

