
OS:Version,
  {ef1aedcd-fd43-4deb-82e6-d119764bffbd}, !- Handle
  1.1.0;                                  !- Version Identifier

OS:Construction,
  {e5290d7f-5f23-40cd-98af-52282f7fe2cd}, !- Handle
  Dbl Green 3mm/13mm Arg,                 !- Name
  ,                                       !- Surface Rendering Name
  {fa7b3145-77ba-42dc-94f4-057e8c003f32}, !- Layer 1
  {144eb432-a026-4fc1-8ffa-0c0ffb4a1b44}, !- Layer 2
  {53d036ae-0469-4704-a116-59cd72d5ebf7}; !- Layer 3

OS:WindowMaterial:Glazing,
  {fa7b3145-77ba-42dc-94f4-057e8c003f32}, !- Handle
  GREEN 3MM,                              !- Name
  SpectralAverage,                        !- Optical Data Type
  ,                                       !- Window Glass Spectral Data Set Name
  0.003,                                  !- Thickness {m}
  0.635,                                  !- Solar Transmittance at Normal Incidence
  0.063,                                  !- Front Side Solar Reflectance at Normal Incidence
  0.063,                                  !- Back Side Solar Reflectance at Normal Incidence
  0.822,                                  !- Visible Transmittance at Normal Incidence
  0.075,                                  !- Front Side Visible Reflectance at Normal Incidence
  0.075,                                  !- Back Side Visible Reflectance at Normal Incidence
  0,                                      !- Infrared Transmittance at Normal Incidence
  0.84,                                   !- Front Side Infrared Hemispherical Emissivity
  0.84,                                   !- Back Side Infrared Hemispherical Emissivity
  0.9;                                    !- Conductivity {W/m-K}

OS:WindowMaterial:Gas,
  {144eb432-a026-4fc1-8ffa-0c0ffb4a1b44}, !- Handle
  ARGON 13MM,                             !- Name
  Argon,                                  !- Gas Type
  0.0127;                                 !- Thickness {m}

OS:WindowMaterial:Glazing,
  {53d036ae-0469-4704-a116-59cd72d5ebf7}, !- Handle
  CLEAR 3MM,                              !- Name
  SpectralAverage,                        !- Optical Data Type
  ,                                       !- Window Glass Spectral Data Set Name
  0.003,                                  !- Thickness {m}
  0.837,                                  !- Solar Transmittance at Normal Incidence
  0.075,                                  !- Front Side Solar Reflectance at Normal Incidence
  0.075,                                  !- Back Side Solar Reflectance at Normal Incidence
  0.898,                                  !- Visible Transmittance at Normal Incidence
  0.081,                                  !- Front Side Visible Reflectance at Normal Incidence
  0.081,                                  !- Back Side Visible Reflectance at Normal Incidence
  0,                                      !- Infrared Transmittance at Normal Incidence
  0.84,                                   !- Front Side Infrared Hemispherical Emissivity
  0.84,                                   !- Back Side Infrared Hemispherical Emissivity
  0.9;                                    !- Conductivity {W/m-K}

