
OS:Version,
  {c0582357-e9a5-4cdc-a81b-3b748b208c71}, ! Handle
  0.9.3;                                  ! Version Identifier

OS:Material,
  {24c71e0b-a3a0-409d-b5a3-25cd5582a3b1}, ! Handle
  Wood Siding,                            ! Name
  MediumSmooth,                           ! Roughness
  0.01,                                   ! Thickness {m}
  0.11,                                   ! Conductivity {W/m-K}
  544.62,                                 ! Density {kg/m3}
  1210,                                   ! Specific Heat {J/kg-K}
  0.9,                                    ! Thermal Absorptance
  0.78,                                   ! Solar Absorptance
  0.78;                                   ! Visible Absorptance

OS:Construction,
  {800a172a-4b42-4af1-a894-995ec7c32206}, ! Handle
  90.1-1999 Nonres B5 Ext Wall Wood-Framed and Other, ! Name
  ,                                       ! Surface Rendering Name
  {24c71e0b-a3a0-409d-b5a3-25cd5582a3b1}, ! Layer 1
  {561bd658-105a-4d40-aaa4-fef40ea37e98}, ! Layer 2
  {ce4efb14-a9ee-43ae-847f-bbce5c5ef3f1}; ! Layer 3

OS:Material,
  {561bd658-105a-4d40-aaa4-fef40ea37e98}, ! Handle
  Wall Insulation [2],                    ! Name
  MediumRough,                            ! Roughness
  0.0746874,                              ! Thickness {m}
  0.045,                                  ! Conductivity {W/m-K}
  265,                                    ! Density {kg/m3}
  836.8,                                  ! Specific Heat {J/kg-K}
  0.9,                                    ! Thermal Absorptance
  0.7,                                    ! Solar Absorptance
  0.7;                                    ! Visible Absorptance

OS:Material,
  {ce4efb14-a9ee-43ae-847f-bbce5c5ef3f1}, ! Handle
  1/2IN Gypsum,                           ! Name
  Smooth,                                 ! Roughness
  0.01271,                                ! Thickness {m}
  0.16,                                   ! Conductivity {W/m-K}
  784.9,                                  ! Density {kg/m3}
  830,                                    ! Specific Heat {J/kg-K}
  0.9,                                    ! Thermal Absorptance
  0.92,                                   ! Solar Absorptance
  0.92;                                   ! Visible Absorptance

OS:ComponentCost:LineItem,
  {a23950e4-d4d0-4080-b587-0f0e1bcead21}, ! Handle
  90.1-1999 Nonres B5 Ext Wall Wood-Framed and Other, ! Name
  ,                                       ! Type
  Construction,                           ! Line Item Type
  90.1-1999 Nonres B5 Ext Wall Wood-Framed and Other, ! Item Name
  ,                                       ! Object End Use Key
  ,                                       ! Quantity {dimensionless}
  73.056,                                 ! Material Cost {$}
  CostPerArea;                            ! Material Cost Units

