
OS:Version,
  {f5d316f6-b557-4e44-a3ff-a00a61e371f9}, ! Handle
  0.9.3;                                  ! Version Identifier

OS:Construction,
  {f5a99fd0-e71b-41a0-88cd-ab27161b1e18}, ! Handle
  90.1-1999 Nonres B5 Ext Wall Wood-Framed and Other, ! Name
  ,                                       ! Surface Rendering Name
  {e9cdc34e-1392-4288-be20-5ffcac5cb036}, ! Layer 1
  {78830405-e112-492f-82bb-99db521f3a2b}, ! Layer 2
  {180ad196-e32b-4604-888a-382ff755572c}; ! Layer 3

OS:Material,
  {e9cdc34e-1392-4288-be20-5ffcac5cb036}, ! Handle
  Wood Siding,                            ! Name
  MediumSmooth,                           ! Roughness
  0.01,                                   ! Thickness {m}
  0.11,                                   ! Conductivity {W/m-K}
  544.62,                                 ! Density {kg/m3}
  1210,                                   ! Specific Heat {J/kg-K}
  0.9,                                    ! Thermal Absorptance
  0.78,                                   ! Solar Absorptance
  0.78;                                   ! Visible Absorptance

OS:Material,
  {78830405-e112-492f-82bb-99db521f3a2b}, ! Handle
  Wall Insulation [2],                    ! Name
  MediumRough,                            ! Roughness
  0.0746874,                              ! Thickness {m}
  0.045,                                  ! Conductivity {W/m-K}
  265,                                    ! Density {kg/m3}
  836.8,                                  ! Specific Heat {J/kg-K}
  0.9,                                    ! Thermal Absorptance
  0.7,                                    ! Solar Absorptance
  0.7;                                    ! Visible Absorptance

OS:Material,
  {180ad196-e32b-4604-888a-382ff755572c}, ! Handle
  1/2IN Gypsum,                           ! Name
  Smooth,                                 ! Roughness
  0.01271,                                ! Thickness {m}
  0.16,                                   ! Conductivity {W/m-K}
  784.9,                                  ! Density {kg/m3}
  830,                                    ! Specific Heat {J/kg-K}
  0.9,                                    ! Thermal Absorptance
  0.92,                                   ! Solar Absorptance
  0.92;                                   ! Visible Absorptance

OS:ComponentCost:LineItem,
  {aad3a161-675f-46ab-a348-cd16fb98f56d}, ! Handle
  90.1-1999 Nonres B5 Ext Wall Wood-Framed and Other, ! Name
  ,                                       ! Type
  Construction,                           ! Line Item Type
  90.1-1999 Nonres B5 Ext Wall Wood-Framed and Other, ! Item Name
  ,                                       ! Object End Use Key
  ,                                       ! Quantity {dimensionless}
  73.056,                                 ! Material Cost {$}
  CostPerArea;                            ! Material Cost Units

OS:ComponentData,
  {e98d75d5-6448-42c5-85af-9799429c5875}, ! Handle
  Component Data 1,                       ! Name
  {2534614d-c12f-44f2-858f-ee6617e8d043}, ! UUID
  {4cff5266-17cd-4e4b-ac13-bbb136fcd9da}, ! Version UUID
  1363981057,                             ! Creation Timestamp
  1363981057,                             ! Version Timestamp
  {f5a99fd0-e71b-41a0-88cd-ab27161b1e18}, ! Name of Object 1
  {e9cdc34e-1392-4288-be20-5ffcac5cb036}, ! Name of Object 2
  {78830405-e112-492f-82bb-99db521f3a2b}, ! Name of Object 3
  {180ad196-e32b-4604-888a-382ff755572c}, ! Name of Object 4
  {aad3a161-675f-46ab-a348-cd16fb98f56d}; ! Name of Object 5

