
OS:Version,
  {a98c2c20-69ef-4133-ba54-42cd645b78c8}, ! Handle
  0.9.3;                                  ! Version Identifier

OS:Construction,
  {43beeeb0-b472-4d93-be1e-7076e6d97375}, ! Handle
  Title 24-2008 Nonres 16 Ext Slab Unheated - 4in Slab without Carpet, ! Name
  ,                                       ! Surface Rendering Name
  {16c5cd90-778f-4bf2-953e-7ff9cea39334}; ! Layer 1

OS:Material,
  {16c5cd90-778f-4bf2-953e-7ff9cea39334}, ! Handle
  MAT-CC05 4 HW CONCRETE,                 ! Name
  Rough,                                  ! Roughness
  0.1016,                                 ! Thickness {m}
  1.311,                                  ! Conductivity {W/m-K}
  2240,                                   ! Density {kg/m3}
  836.8,                                  ! Specific Heat {J/kg-K}
  0.9,                                    ! Thermal Absorptance
  0.7,                                    ! Solar Absorptance
  0.7;                                    ! Visible Absorptance

OS:ComponentCost:LineItem,
  {268f8cc5-7c8a-40b1-a3e0-4aa2185efac7}, ! Handle
  Title 24-2008 Nonres 16 Ext Slab Unheated - 4in Slab without Carpet, ! Name
  ,                                       ! Type
  Construction,                           ! Line Item Type
  Title 24-2008 Nonres 16 Ext Slab Unheated - 4in Slab without Carpet, ! Item Name
  ,                                       ! Object End Use Key
  ,                                       ! Quantity {dimensionless}
  45.52,                                  ! Material Cost {$}
  CostPerArea;                            ! Material Cost Units

OS:ComponentData,
  {14e24c22-3c36-405c-91b3-f24c7edbd317}, ! Handle
  Component Data 1,                       ! Name
  {d4010b8e-7757-4b9f-b02e-9a8ee6b9361d}, ! UUID
  {c38e2920-1d4d-4bfb-a756-c6e66201ef5a}, ! Version UUID
  1363982125,                             ! Creation Timestamp
  1363982125,                             ! Version Timestamp
  {43beeeb0-b472-4d93-be1e-7076e6d97375}, ! Name of Object 1
  {16c5cd90-778f-4bf2-953e-7ff9cea39334}, ! Name of Object 2
  {268f8cc5-7c8a-40b1-a3e0-4aa2185efac7}; ! Name of Object 3

