
OS:Version,
  {12e564eb-7729-4682-9000-9f524b196021}, ! Handle
  0.9.3;                                  ! Version Identifier

OS:Material,
  {f2dd3137-be8f-4ec0-ae13-ea481edad4d0}, ! Handle
  Wall Insulation [9],                    ! Name
  MediumRough,                            ! Roughness
  0.128642,                               ! Thickness {m}
  0.045,                                  ! Conductivity {W/m-K}
  265,                                    ! Density {kg/m3}
  836.8,                                  ! Specific Heat {J/kg-K}
  0.9,                                    ! Thermal Absorptance
  0.7,                                    ! Solar Absorptance
  0.7;                                    ! Visible Absorptance

OS:Construction,
  {c2c69000-e910-49cd-a266-e1cbc7b5e565}, ! Handle
  90.1-2001 Res B16 Ext Wall Metal Building, ! Name
  ,                                       ! Surface Rendering Name
  {65408395-550c-499c-b081-13a94f71c87a}, ! Layer 1
  {f2dd3137-be8f-4ec0-ae13-ea481edad4d0}, ! Layer 2
  {1c31541a-c90c-4447-8c15-0bc6866ccdb1}; ! Layer 3

OS:Material,
  {65408395-550c-499c-b081-13a94f71c87a}, ! Handle
  Metal Siding,                           ! Name
  Smooth,                                 ! Roughness
  0.0015,                                 ! Thickness {m}
  44.96,                                  ! Conductivity {W/m-K}
  7688.86,                                ! Density {kg/m3}
  410,                                    ! Specific Heat {J/kg-K}
  0.9,                                    ! Thermal Absorptance
  0.2,                                    ! Solar Absorptance
  0.2;                                    ! Visible Absorptance

OS:Material,
  {1c31541a-c90c-4447-8c15-0bc6866ccdb1}, ! Handle
  1/2IN Gypsum,                           ! Name
  Smooth,                                 ! Roughness
  0.01271,                                ! Thickness {m}
  0.16,                                   ! Conductivity {W/m-K}
  784.9,                                  ! Density {kg/m3}
  830,                                    ! Specific Heat {J/kg-K}
  0.9,                                    ! Thermal Absorptance
  0.92,                                   ! Solar Absorptance
  0.92;                                   ! Visible Absorptance

OS:ComponentCost:LineItem,
  {5722bc8b-0488-40a3-a34a-b33bb73dad35}, ! Handle
  90.1-2001 Res B16 Ext Wall Metal Building, ! Name
  ,                                       ! Type
  Construction,                           ! Line Item Type
  90.1-2001 Res B16 Ext Wall Metal Building, ! Item Name
  ,                                       ! Object End Use Key
  ,                                       ! Quantity {dimensionless}
  107.698,                                ! Material Cost {$}
  CostPerArea;                            ! Material Cost Units

