
OS:Version,
  {0e3c6381-c2f7-461f-9520-088565e2e229}, ! Handle
  0.9.3;                                  ! Version Identifier

OS:Construction,
  {d4874cf6-febf-4947-8a38-ed7d01342a8d}, ! Handle
  90.1-2001 Res B16 Ext Wall Metal Building, ! Name
  ,                                       ! Surface Rendering Name
  {48a488d9-ca59-4c5e-a890-356fff024a93}, ! Layer 1
  {bc863e09-3ec8-4854-84b1-fd9c27041284}, ! Layer 2
  {c7407a5d-aca3-402b-89cb-a825c616b10f}; ! Layer 3

OS:Material,
  {48a488d9-ca59-4c5e-a890-356fff024a93}, ! Handle
  Metal Siding,                           ! Name
  Smooth,                                 ! Roughness
  0.0015,                                 ! Thickness {m}
  44.96,                                  ! Conductivity {W/m-K}
  7688.86,                                ! Density {kg/m3}
  410,                                    ! Specific Heat {J/kg-K}
  0.9,                                    ! Thermal Absorptance
  0.2,                                    ! Solar Absorptance
  0.2;                                    ! Visible Absorptance

OS:Material,
  {bc863e09-3ec8-4854-84b1-fd9c27041284}, ! Handle
  Wall Insulation [9],                    ! Name
  MediumRough,                            ! Roughness
  0.128642,                               ! Thickness {m}
  0.045,                                  ! Conductivity {W/m-K}
  265,                                    ! Density {kg/m3}
  836.8,                                  ! Specific Heat {J/kg-K}
  0.9,                                    ! Thermal Absorptance
  0.7,                                    ! Solar Absorptance
  0.7;                                    ! Visible Absorptance

OS:Material,
  {c7407a5d-aca3-402b-89cb-a825c616b10f}, ! Handle
  1/2IN Gypsum,                           ! Name
  Smooth,                                 ! Roughness
  0.01271,                                ! Thickness {m}
  0.16,                                   ! Conductivity {W/m-K}
  784.9,                                  ! Density {kg/m3}
  830,                                    ! Specific Heat {J/kg-K}
  0.9,                                    ! Thermal Absorptance
  0.92,                                   ! Solar Absorptance
  0.92;                                   ! Visible Absorptance

OS:ComponentCost:LineItem,
  {99ad7067-51e3-48cd-b7fd-304905c0651d}, ! Handle
  90.1-2001 Res B16 Ext Wall Metal Building, ! Name
  ,                                       ! Type
  Construction,                           ! Line Item Type
  90.1-2001 Res B16 Ext Wall Metal Building, ! Item Name
  ,                                       ! Object End Use Key
  ,                                       ! Quantity {dimensionless}
  107.698,                                ! Material Cost {$}
  CostPerArea;                            ! Material Cost Units

OS:ComponentData,
  {a73ede42-b288-447a-859e-d9629d8845ac}, ! Handle
  Component Data 1,                       ! Name
  {dc3674b3-d8bb-4b50-a807-a225be1e8017}, ! UUID
  {9e100ea2-a902-49d5-b73b-aa39928e974d}, ! Version UUID
  1363981543,                             ! Creation Timestamp
  1363981543,                             ! Version Timestamp
  {d4874cf6-febf-4947-8a38-ed7d01342a8d}, ! Name of Object 1
  {48a488d9-ca59-4c5e-a890-356fff024a93}, ! Name of Object 2
  {bc863e09-3ec8-4854-84b1-fd9c27041284}, ! Name of Object 3
  {c7407a5d-aca3-402b-89cb-a825c616b10f}, ! Name of Object 4
  {99ad7067-51e3-48cd-b7fd-304905c0651d}; ! Name of Object 5

