
OS:Version,
  {fa59e79c-0556-49f9-a964-1445f6d4606f}, ! Handle
  0.9.3;                                  ! Version Identifier

OS:Construction,
  {ee7e0022-a28c-4de7-be5e-0bcf705e9f8a}, ! Handle
  90.1-2007 Res 6B Window Nonmetal framing, ! Name
  ,                                       ! Surface Rendering Name
  {9efda69d-a55e-4f93-bc6d-8b0f43f33e7c}; ! Layer 1

OS:WindowMaterial:Glazing,
  {9efda69d-a55e-4f93-bc6d-8b0f43f33e7c}, ! Handle
  Theoretical Glass [183],                ! Name
  SpectralAverage,                        ! Optical Data Type
  ,                                       ! Window Glass Spectral Data Set Name
  0.003,                                  ! Thickness {m}
  0.395208,                               ! Solar Transmittance at Normal Incidence
  0.554792,                               ! Front Side Solar Reflectance at Normal Incidence
  0.554792,                               ! Back Side Solar Reflectance at Normal Incidence
  0.507883,                               ! Visible Transmittance at Normal Incidence
  0.442117,                               ! Front Side Visible Reflectance at Normal Incidence
  0.442117,                               ! Back Side Visible Reflectance at Normal Incidence
  0,                                      ! Infrared Transmittance at Normal Incidence
  0.9,                                    ! Front Side Infrared Hemispherical Emissivity
  0.9,                                    ! Back Side Infrared Hemispherical Emissivity
  0.00882612;                             ! Conductivity {W/m-K}

OS:ComponentCost:LineItem,
  {c63757ec-ee9e-4111-b165-44270a261632}, ! Handle
  90.1-2007 Res 6B Window Nonmetal framing, ! Name
  ,                                       ! Type
  Construction,                           ! Line Item Type
  90.1-2007 Res 6B Window Nonmetal framing, ! Item Name
  ,                                       ! Object End Use Key
  ,                                       ! Quantity {dimensionless}
  512.02,                                 ! Material Cost {$}
  CostPerArea;                            ! Material Cost Units

