
OS:Version,
  {91200988-502b-497d-8f9d-5d7d87a2f225}, ! Handle
  0.9.3;                                  ! Version Identifier

OS:Construction,
  {7c62e347-b87e-442b-8c80-10d4f3ee686f}, ! Handle
  90.1-2007 Nonres 1A Ext Wall Mass,      ! Name
  ,                                       ! Surface Rendering Name
  {b77ed8e1-c0e7-49f4-9c03-6056c52fd69d}, ! Layer 1
  {6ae4c6e0-b7dd-4955-a88f-6732216f4465}, ! Layer 2
  {17e334a8-e8cd-4627-b2d7-5183cbeddc6a}; ! Layer 3

OS:Material,
  {b77ed8e1-c0e7-49f4-9c03-6056c52fd69d}, ! Handle
  1IN Stucco,                             ! Name
  Smooth,                                 ! Roughness
  0.0253,                                 ! Thickness {m}
  0.6918,                                 ! Conductivity {W/m-K}
  1858,                                   ! Density {kg/m3}
  837,                                    ! Specific Heat {J/kg-K}
  0.9,                                    ! Thermal Absorptance
  0.92,                                   ! Solar Absorptance
  0.92;                                   ! Visible Absorptance

OS:Material,
  {6ae4c6e0-b7dd-4955-a88f-6732216f4465}, ! Handle
  8IN Concrete HW,                        ! Name
  MediumRough,                            ! Roughness
  0.2033,                                 ! Thickness {m}
  1.7296,                                 ! Conductivity {W/m-K}
  2243,                                   ! Density {kg/m3}
  837,                                    ! Specific Heat {J/kg-K}
  0.9,                                    ! Thermal Absorptance
  0.65,                                   ! Solar Absorptance
  0.65;                                   ! Visible Absorptance

OS:Material,
  {17e334a8-e8cd-4627-b2d7-5183cbeddc6a}, ! Handle
  1/2IN Gypsum,                           ! Name
  Smooth,                                 ! Roughness
  0.01271,                                ! Thickness {m}
  0.16,                                   ! Conductivity {W/m-K}
  784.9,                                  ! Density {kg/m3}
  830,                                    ! Specific Heat {J/kg-K}
  0.9,                                    ! Thermal Absorptance
  0.92,                                   ! Solar Absorptance
  0.92;                                   ! Visible Absorptance

OS:ComponentCost:LineItem,
  {4afeb635-0ed9-4693-89f8-58a4cfa2d7fa}, ! Handle
  90.1-2007 Nonres 1A Ext Wall Mass,      ! Name
  ,                                       ! Type
  Construction,                           ! Line Item Type
  90.1-2007 Nonres 1A Ext Wall Mass,      ! Item Name
  ,                                       ! Object End Use Key
  ,                                       ! Quantity {dimensionless}
  41.397,                                 ! Material Cost {$}
  CostPerArea;                            ! Material Cost Units

