
OS:Version,
  {b64a4cd6-8bc4-4a0a-9ff2-fa6f11acf77e}, ! Handle
  0.9.3;                                  ! Version Identifier

OS:ComponentCost:LineItem,
  {2303b7c7-6ad5-4e46-9d17-a4fb957376ab}, ! Handle
  90.1-2001 Nonres B21 Roof IEAD,         ! Name
  ,                                       ! Type
  Construction,                           ! Line Item Type
  90.1-2001 Nonres B21 Roof IEAD,         ! Item Name
  ,                                       ! Object End Use Key
  ,                                       ! Quantity {dimensionless}
  49.208,                                 ! Material Cost {$}
  CostPerArea;                            ! Material Cost Units

OS:Material,
  {db3c7182-6ea4-4d08-9b41-d017f1c066d3}, ! Handle
  Roof Insulation,                        ! Name
  MediumRough,                            ! Roughness
  0.124958,                               ! Thickness {m}
  0.049,                                  ! Conductivity {W/m-K}
  265,                                    ! Density {kg/m3}
  836.8,                                  ! Specific Heat {J/kg-K}
  0.9,                                    ! Thermal Absorptance
  0.7,                                    ! Solar Absorptance
  0.7;                                    ! Visible Absorptance

OS:Material,
  {207447fd-51c9-4883-932c-2c0851b1fd40}, ! Handle
  Roof Membrane,                          ! Name
  VeryRough,                              ! Roughness
  0.0095,                                 ! Thickness {m}
  0.16,                                   ! Conductivity {W/m-K}
  1121.29,                                ! Density {kg/m3}
  1460,                                   ! Specific Heat {J/kg-K}
  0.9,                                    ! Thermal Absorptance
  0.7,                                    ! Solar Absorptance
  0.7;                                    ! Visible Absorptance

OS:Material,
  {42b069b2-9d57-412b-be26-79274723bcac}, ! Handle
  Metal Decking,                          ! Name
  MediumSmooth,                           ! Roughness
  0.001524,                               ! Thickness {m}
  45.006,                                 ! Conductivity {W/m-K}
  7680,                                   ! Density {kg/m3}
  418.4,                                  ! Specific Heat {J/kg-K}
  0.9,                                    ! Thermal Absorptance
  0.7,                                    ! Solar Absorptance
  0.3;                                    ! Visible Absorptance

OS:Construction,
  {b331c047-9fef-4cc0-99ff-adb34f434c24}, ! Handle
  90.1-2001 Nonres B21 Roof IEAD,         ! Name
  ,                                       ! Surface Rendering Name
  {207447fd-51c9-4883-932c-2c0851b1fd40}, ! Layer 1
  {db3c7182-6ea4-4d08-9b41-d017f1c066d3}, ! Layer 2
  {42b069b2-9d57-412b-be26-79274723bcac}; ! Layer 3

