
OS:Version,
  {40953873-b07c-4af3-ba12-ff396a996b53}, ! Handle
  0.9.3;                                  ! Version Identifier

OS:ComponentCost:LineItem,
  {79ac6582-61d2-4ddf-9ce3-e5187cf1140b}, ! Handle
  90.1-2004 Res 3A Roof IEAD,             ! Name
  ,                                       ! Type
  Construction,                           ! Line Item Type
  90.1-2004 Res 3A Roof IEAD,             ! Item Name
  ,                                       ! Object End Use Key
  ,                                       ! Quantity {dimensionless}
  49.208,                                 ! Material Cost {$}
  CostPerArea;                            ! Material Cost Units

OS:Construction,
  {c19e07ac-cc67-4fe7-88fd-972cf2eb5c11}, ! Handle
  90.1-2004 Res 3A Roof IEAD,             ! Name
  ,                                       ! Surface Rendering Name
  {5fab6022-8076-48d7-9ab7-dfbef8ec7385}, ! Layer 1
  {ed6b3623-4c54-42b4-8658-aa4af3bb5b35}, ! Layer 2
  {fb7aea5b-7f7e-4113-83a5-152f045ec018}; ! Layer 3

OS:Material,
  {5fab6022-8076-48d7-9ab7-dfbef8ec7385}, ! Handle
  Roof Membrane,                          ! Name
  VeryRough,                              ! Roughness
  0.0095,                                 ! Thickness {m}
  0.16,                                   ! Conductivity {W/m-K}
  1121.29,                                ! Density {kg/m3}
  1460,                                   ! Specific Heat {J/kg-K}
  0.9,                                    ! Thermal Absorptance
  0.7,                                    ! Solar Absorptance
  0.7;                                    ! Visible Absorptance

OS:Material,
  {ed6b3623-4c54-42b4-8658-aa4af3bb5b35}, ! Handle
  Roof Insulation,                        ! Name
  MediumRough,                            ! Roughness
  0.124958,                               ! Thickness {m}
  0.049,                                  ! Conductivity {W/m-K}
  265,                                    ! Density {kg/m3}
  836.8,                                  ! Specific Heat {J/kg-K}
  0.9,                                    ! Thermal Absorptance
  0.7,                                    ! Solar Absorptance
  0.7;                                    ! Visible Absorptance

OS:Material,
  {fb7aea5b-7f7e-4113-83a5-152f045ec018}, ! Handle
  Metal Decking,                          ! Name
  MediumSmooth,                           ! Roughness
  0.001524,                               ! Thickness {m}
  45.006,                                 ! Conductivity {W/m-K}
  7680,                                   ! Density {kg/m3}
  418.4,                                  ! Specific Heat {J/kg-K}
  0.9,                                    ! Thermal Absorptance
  0.7,                                    ! Solar Absorptance
  0.3;                                    ! Visible Absorptance

