
OS:Version,
  {d86f08d0-fdbc-467e-b680-b109f1e30bbb}, ! Handle
  0.9.3;                                  ! Version Identifier

OS:Construction,
  {3c72bbfb-b1a5-4a2e-83b4-b171ea66da36}, ! Handle
  90.1-1999 Res B20 Roof IEAD,            ! Name
  ,                                       ! Surface Rendering Name
  {72c0c2b8-342a-41ad-aa94-dc2ec822bde9}, ! Layer 1
  {c3506864-86ee-4636-8447-39bb0aa8bc7e}, ! Layer 2
  {11b0fb59-216a-4df0-bb9a-3e77bd4a2b6d}; ! Layer 3

OS:Material,
  {72c0c2b8-342a-41ad-aa94-dc2ec822bde9}, ! Handle
  Roof Membrane,                          ! Name
  VeryRough,                              ! Roughness
  0.0095,                                 ! Thickness {m}
  0.16,                                   ! Conductivity {W/m-K}
  1121.29,                                ! Density {kg/m3}
  1460,                                   ! Specific Heat {J/kg-K}
  0.9,                                    ! Thermal Absorptance
  0.7,                                    ! Solar Absorptance
  0.7;                                    ! Visible Absorptance

OS:Material,
  {c3506864-86ee-4636-8447-39bb0aa8bc7e}, ! Handle
  Roof Insulation,                        ! Name
  MediumRough,                            ! Roughness
  0.124958,                               ! Thickness {m}
  0.049,                                  ! Conductivity {W/m-K}
  265,                                    ! Density {kg/m3}
  836.8,                                  ! Specific Heat {J/kg-K}
  0.9,                                    ! Thermal Absorptance
  0.7,                                    ! Solar Absorptance
  0.7;                                    ! Visible Absorptance

OS:Material,
  {11b0fb59-216a-4df0-bb9a-3e77bd4a2b6d}, ! Handle
  Metal Decking,                          ! Name
  MediumSmooth,                           ! Roughness
  0.001524,                               ! Thickness {m}
  45.006,                                 ! Conductivity {W/m-K}
  7680,                                   ! Density {kg/m3}
  418.4,                                  ! Specific Heat {J/kg-K}
  0.9,                                    ! Thermal Absorptance
  0.7,                                    ! Solar Absorptance
  0.3;                                    ! Visible Absorptance

OS:ComponentCost:LineItem,
  {b54afcc0-bdd6-4a42-9740-ec664a135393}, ! Handle
  90.1-1999 Res B20 Roof IEAD,            ! Name
  ,                                       ! Type
  Construction,                           ! Line Item Type
  90.1-1999 Res B20 Roof IEAD,            ! Item Name
  ,                                       ! Object End Use Key
  ,                                       ! Quantity {dimensionless}
  49.208,                                 ! Material Cost {$}
  CostPerArea;                            ! Material Cost Units

