
OS:Version,
  {bdc86b94-8b8c-44f8-80f5-def3ed487588}, !- Handle
  1.1.0;                                  !- Version Identifier

OS:Construction,
  {8919f120-4757-4fa8-9b11-7bcc32061447}, !- Handle
  Trp LoE Film (66) Clr 6mm/6mm Air,      !- Name
  ,                                       !- Surface Rendering Name
  {b884c22c-ac5a-428f-9002-8fc9f2d4d19c}, !- Layer 1
  {13bb4912-915d-4bc3-83fe-844199bc2066}, !- Layer 2
  {40680021-cb83-4ff3-9c84-4cf1811add3f}, !- Layer 3
  {13bb4912-915d-4bc3-83fe-844199bc2066}, !- Layer 4
  {b884c22c-ac5a-428f-9002-8fc9f2d4d19c}; !- Layer 5

OS:WindowMaterial:Glazing,
  {b884c22c-ac5a-428f-9002-8fc9f2d4d19c}, !- Handle
  CLEAR 6MM,                              !- Name
  SpectralAverage,                        !- Optical Data Type
  ,                                       !- Window Glass Spectral Data Set Name
  0.006,                                  !- Thickness {m}
  0.775,                                  !- Solar Transmittance at Normal Incidence
  0.071,                                  !- Front Side Solar Reflectance at Normal Incidence
  0.071,                                  !- Back Side Solar Reflectance at Normal Incidence
  0.881,                                  !- Visible Transmittance at Normal Incidence
  0.08,                                   !- Front Side Visible Reflectance at Normal Incidence
  0.08,                                   !- Back Side Visible Reflectance at Normal Incidence
  0,                                      !- Infrared Transmittance at Normal Incidence
  0.84,                                   !- Front Side Infrared Hemispherical Emissivity
  0.84,                                   !- Back Side Infrared Hemispherical Emissivity
  0.9;                                    !- Conductivity {W/m-K}

OS:WindowMaterial:Gas,
  {13bb4912-915d-4bc3-83fe-844199bc2066}, !- Handle
  AIR 6MM,                                !- Name
  Air,                                    !- Gas Type
  0.0063;                                 !- Thickness {m}

OS:WindowMaterial:Glazing,
  {40680021-cb83-4ff3-9c84-4cf1811add3f}, !- Handle
  COATED POLY-66,                         !- Name
  SpectralAverage,                        !- Optical Data Type
  ,                                       !- Window Glass Spectral Data Set Name
  0.00051,                                !- Thickness {m}
  0.403,                                  !- Solar Transmittance at Normal Incidence
  0.514,                                  !- Front Side Solar Reflectance at Normal Incidence
  0.515,                                  !- Back Side Solar Reflectance at Normal Incidence
  0.658,                                  !- Visible Transmittance at Normal Incidence
  0.256,                                  !- Front Side Visible Reflectance at Normal Incidence
  0.279,                                  !- Back Side Visible Reflectance at Normal Incidence
  0,                                      !- Infrared Transmittance at Normal Incidence
  0.057,                                  !- Front Side Infrared Hemispherical Emissivity
  0.72,                                   !- Back Side Infrared Hemispherical Emissivity
  0.14;                                   !- Conductivity {W/m-K}

