
OS:Version,
  {6e9bdf82-d777-4ca6-a08f-9b5eba9e343e}, !- Handle
  1.1.0;                                  !- Version Identifier

OS:Construction,
  {31d4e44e-d388-4bfb-a940-9bc889dcf854}, !- Handle
  Trp LoE Film (66) Clr 6mm/6mm Air,      !- Name
  ,                                       !- Surface Rendering Name
  {0b7caf7b-6f8f-40d6-a316-4c764fe6206e}, !- Layer 1
  {734faa2a-04e7-456f-8911-9b1935673333}, !- Layer 2
  {7d5ba3b8-0649-4b08-bbc4-3a502c621475}, !- Layer 3
  {734faa2a-04e7-456f-8911-9b1935673333}, !- Layer 4
  {0b7caf7b-6f8f-40d6-a316-4c764fe6206e}; !- Layer 5

OS:WindowMaterial:Glazing,
  {0b7caf7b-6f8f-40d6-a316-4c764fe6206e}, !- Handle
  CLEAR 6MM,                              !- Name
  SpectralAverage,                        !- Optical Data Type
  ,                                       !- Window Glass Spectral Data Set Name
  0.006,                                  !- Thickness {m}
  0.775,                                  !- Solar Transmittance at Normal Incidence
  0.071,                                  !- Front Side Solar Reflectance at Normal Incidence
  0.071,                                  !- Back Side Solar Reflectance at Normal Incidence
  0.881,                                  !- Visible Transmittance at Normal Incidence
  0.08,                                   !- Front Side Visible Reflectance at Normal Incidence
  0.08,                                   !- Back Side Visible Reflectance at Normal Incidence
  0,                                      !- Infrared Transmittance at Normal Incidence
  0.84,                                   !- Front Side Infrared Hemispherical Emissivity
  0.84,                                   !- Back Side Infrared Hemispherical Emissivity
  0.9;                                    !- Conductivity {W/m-K}

OS:WindowMaterial:Gas,
  {734faa2a-04e7-456f-8911-9b1935673333}, !- Handle
  AIR 6MM,                                !- Name
  Air,                                    !- Gas Type
  0.0063;                                 !- Thickness {m}

OS:WindowMaterial:Glazing,
  {7d5ba3b8-0649-4b08-bbc4-3a502c621475}, !- Handle
  COATED POLY-66,                         !- Name
  SpectralAverage,                        !- Optical Data Type
  ,                                       !- Window Glass Spectral Data Set Name
  0.00051,                                !- Thickness {m}
  0.403,                                  !- Solar Transmittance at Normal Incidence
  0.514,                                  !- Front Side Solar Reflectance at Normal Incidence
  0.515,                                  !- Back Side Solar Reflectance at Normal Incidence
  0.658,                                  !- Visible Transmittance at Normal Incidence
  0.256,                                  !- Front Side Visible Reflectance at Normal Incidence
  0.279,                                  !- Back Side Visible Reflectance at Normal Incidence
  0,                                      !- Infrared Transmittance at Normal Incidence
  0.057,                                  !- Front Side Infrared Hemispherical Emissivity
  0.72,                                   !- Back Side Infrared Hemispherical Emissivity
  0.14;                                   !- Conductivity {W/m-K}

OS:ComponentData,
  {1a3e5628-bb74-4091-bb86-31af755bda21}, !- Handle
  Component Data 1,                       !- Name
  {f17bbae6-b444-46c8-a77f-152160fe8fad}, !- UUID
  {a588d5bd-3465-4377-9d0a-3c0cdfa0138a}, !- Version UUID
  1384380191,                             !- Creation Timestamp
  1384380191,                             !- Version Timestamp
  {31d4e44e-d388-4bfb-a940-9bc889dcf854}, !- Name of Object 1
  {0b7caf7b-6f8f-40d6-a316-4c764fe6206e}, !- Name of Object 2
  {734faa2a-04e7-456f-8911-9b1935673333}, !- Name of Object 3
  {7d5ba3b8-0649-4b08-bbc4-3a502c621475}; !- Name of Object 4

