
OS:Version,
  {4f474040-c9b2-4fb9-bc98-93c5a3797613}, ! Handle
  0.9.3;                                  ! Version Identifier

OS:Material,
  {426a555d-74ce-4561-a7b6-1334c2fe0e8f}, ! Handle
  Metal Decking,                          ! Name
  MediumSmooth,                           ! Roughness
  0.001524,                               ! Thickness {m}
  45.006,                                 ! Conductivity {W/m-K}
  7680,                                   ! Density {kg/m3}
  418.4,                                  ! Specific Heat {J/kg-K}
  0.9,                                    ! Thermal Absorptance
  0.7,                                    ! Solar Absorptance
  0.3;                                    ! Visible Absorptance

OS:Material,
  {ce31b3f2-3e36-4512-a531-6c779bce148a}, ! Handle
  Roof Insulation [12],                   ! Name
  MediumRough,                            ! Roughness
  0.167635,                               ! Thickness {m}
  0.049,                                  ! Conductivity {W/m-K}
  265,                                    ! Density {kg/m3}
  836.8,                                  ! Specific Heat {J/kg-K}
  0.9,                                    ! Thermal Absorptance
  0.7,                                    ! Solar Absorptance
  0.7;                                    ! Visible Absorptance

OS:Construction,
  {0e731df3-5439-4d7a-b37b-2bf224d0026c}, ! Handle
  90.1-2001 Res B1 Roof IEAD,             ! Name
  ,                                       ! Surface Rendering Name
  {d8562291-6f0c-42c6-8a13-96629da7f310}, ! Layer 1
  {ce31b3f2-3e36-4512-a531-6c779bce148a}, ! Layer 2
  {426a555d-74ce-4561-a7b6-1334c2fe0e8f}; ! Layer 3

OS:Material,
  {d8562291-6f0c-42c6-8a13-96629da7f310}, ! Handle
  Roof Membrane,                          ! Name
  VeryRough,                              ! Roughness
  0.0095,                                 ! Thickness {m}
  0.16,                                   ! Conductivity {W/m-K}
  1121.29,                                ! Density {kg/m3}
  1460,                                   ! Specific Heat {J/kg-K}
  0.9,                                    ! Thermal Absorptance
  0.7,                                    ! Solar Absorptance
  0.7;                                    ! Visible Absorptance

OS:ComponentCost:LineItem,
  {a9f51765-10bf-41c0-8c0d-005ee3b55b72}, ! Handle
  90.1-2001 Res B1 Roof IEAD,             ! Name
  ,                                       ! Type
  Construction,                           ! Line Item Type
  90.1-2001 Res B1 Roof IEAD,             ! Item Name
  ,                                       ! Object End Use Key
  ,                                       ! Quantity {dimensionless}
  52.902,                                 ! Material Cost {$}
  CostPerArea;                            ! Material Cost Units

