
OS:Version,
  {418ac61c-febb-4b9f-b0fd-3f5746f21b93}, ! Handle
  0.9.3;                                  ! Version Identifier

OS:Construction,
  {357af35b-5def-42c0-a65f-e815954a5d67}, ! Handle
  AEDG-SmOffice 3A Ext Slab Unheated - 4in Slab without Carpet, ! Name
  ,                                       ! Surface Rendering Name
  {549f8985-7145-401a-9ebc-a775c5d1613a}; ! Layer 1

OS:Material,
  {549f8985-7145-401a-9ebc-a775c5d1613a}, ! Handle
  MAT-CC05 4 HW CONCRETE,                 ! Name
  Rough,                                  ! Roughness
  0.1016,                                 ! Thickness {m}
  1.311,                                  ! Conductivity {W/m-K}
  2240,                                   ! Density {kg/m3}
  836.8,                                  ! Specific Heat {J/kg-K}
  0.9,                                    ! Thermal Absorptance
  0.7,                                    ! Solar Absorptance
  0.7;                                    ! Visible Absorptance

OS:ComponentCost:LineItem,
  {ee726e9e-a208-4eaf-baab-d5fbb00eaecd}, ! Handle
  AEDG-SmOffice 3A Ext Slab Unheated - 4in Slab without Carpet, ! Name
  ,                                       ! Type
  Construction,                           ! Line Item Type
  AEDG-SmOffice 3A Ext Slab Unheated - 4in Slab without Carpet, ! Item Name
  ,                                       ! Object End Use Key
  ,                                       ! Quantity {dimensionless}
  45.52,                                  ! Material Cost {$}
  CostPerArea;                            ! Material Cost Units

OS:ComponentData,
  {2bd831c1-0f2f-4e7d-bf72-6f0ac4be1bfa}, ! Handle
  Component Data 1,                       ! Name
  {8acb1913-c7a4-4972-a345-caec2298edde}, ! UUID
  {38753928-80f5-429b-8df5-70c3323011b6}, ! Version UUID
  1363981948,                             ! Creation Timestamp
  1363981948,                             ! Version Timestamp
  {357af35b-5def-42c0-a65f-e815954a5d67}, ! Name of Object 1
  {549f8985-7145-401a-9ebc-a775c5d1613a}, ! Name of Object 2
  {ee726e9e-a208-4eaf-baab-d5fbb00eaecd}; ! Name of Object 3

