
OS:Version,
  {a3484a6d-5a39-435b-935b-dc8e169e6110}, ! Handle
  0.9.3;                                  ! Version Identifier

OS:Material,
  {83f69dc1-356f-4b3f-affe-ee37af82b2e0}, ! Handle
  MAT-CC05 4 HW CONCRETE,                 ! Name
  Rough,                                  ! Roughness
  0.1016,                                 ! Thickness {m}
  1.311,                                  ! Conductivity {W/m-K}
  2240,                                   ! Density {kg/m3}
  836.8,                                  ! Specific Heat {J/kg-K}
  0.9,                                    ! Thermal Absorptance
  0.7,                                    ! Solar Absorptance
  0.7;                                    ! Visible Absorptance

OS:Construction,
  {a1a4eb27-0ac0-4d78-b5ef-d2e35240aa69}, ! Handle
  AEDG-SmOffice 3A Ext Slab Unheated - 4in Slab without Carpet, ! Name
  ,                                       ! Surface Rendering Name
  {83f69dc1-356f-4b3f-affe-ee37af82b2e0}; ! Layer 1

OS:ComponentCost:LineItem,
  {9b1770b7-1b27-4c32-aaf2-8cbc3ac1b3ea}, ! Handle
  AEDG-SmOffice 3A Ext Slab Unheated - 4in Slab without Carpet, ! Name
  ,                                       ! Type
  Construction,                           ! Line Item Type
  AEDG-SmOffice 3A Ext Slab Unheated - 4in Slab without Carpet, ! Item Name
  ,                                       ! Object End Use Key
  ,                                       ! Quantity {dimensionless}
  45.52,                                  ! Material Cost {$}
  CostPerArea;                            ! Material Cost Units

