
OS:Version,
  {108b4168-b9c4-400f-a61f-fceacd3d2b73}, ! Handle
  0.9.3;                                  ! Version Identifier

OS:Construction,
  {7b3ebf2e-133f-43a1-a568-37abe9ff18a8}, ! Handle
  AEDG-SmOffice 7A Ext Slab Unheated - 8in Slab with Carpet, ! Name
  ,                                       ! Surface Rendering Name
  {651f76e9-1091-4a5d-9d31-0682b4ae9e47}, ! Layer 1
  {eaf41c20-ab8b-4288-95cb-b5aeb649a849}; ! Layer 2

OS:Material,
  {651f76e9-1091-4a5d-9d31-0682b4ae9e47}, ! Handle
  MAT-CC05 8 HW CONCRETE,                 ! Name
  Rough,                                  ! Roughness
  0.20321,                                ! Thickness {m}
  1.311,                                  ! Conductivity {W/m-K}
  2240,                                   ! Density {kg/m3}
  836.8,                                  ! Specific Heat {J/kg-K}
  0.9,                                    ! Thermal Absorptance
  0.7,                                    ! Solar Absorptance
  0.7;                                    ! Visible Absorptance

OS:Material:NoMass,
  {eaf41c20-ab8b-4288-95cb-b5aeb649a849}, ! Handle
  CP02 CARPET PAD,                        ! Name
  VeryRough,                              ! Roughness
  0.21648,                                ! Thermal Resistance {m2-K/W}
  0.9,                                    ! Thermal Absorptance
  0.7,                                    ! Solar Absorptance
  0.8;                                    ! Visible Absorptance

OS:ComponentCost:LineItem,
  {e55ea84b-4497-4a8c-a4da-b2c38f55efd5}, ! Handle
  AEDG-SmOffice 7A Ext Slab Unheated - 8in Slab with Carpet, ! Name
  ,                                       ! Type
  Construction,                           ! Line Item Type
  AEDG-SmOffice 7A Ext Slab Unheated - 8in Slab with Carpet, ! Item Name
  ,                                       ! Object End Use Key
  ,                                       ! Quantity {dimensionless}
  45.52,                                  ! Material Cost {$}
  CostPerArea;                            ! Material Cost Units

OS:ComponentData,
  {8cf5c753-68e3-4a53-b260-6124d4a7ea60}, ! Handle
  Component Data 1,                       ! Name
  {cdf667dd-da34-4ea2-aeb9-87f48fae47be}, ! UUID
  {b8a60af4-b886-45d8-97dd-bfbeef5870e6}, ! Version UUID
  1363981965,                             ! Creation Timestamp
  1363981965,                             ! Version Timestamp
  {7b3ebf2e-133f-43a1-a568-37abe9ff18a8}, ! Name of Object 1
  {651f76e9-1091-4a5d-9d31-0682b4ae9e47}, ! Name of Object 2
  {eaf41c20-ab8b-4288-95cb-b5aeb649a849}, ! Name of Object 3
  {e55ea84b-4497-4a8c-a4da-b2c38f55efd5}; ! Name of Object 4

