
OS:Version,
  {0fb71a72-5e48-413a-91b0-a2c788782476}, ! Handle
  0.9.3;                                  ! Version Identifier

OS:Material,
  {7b0fd5d7-3f69-44f5-8543-783945b98c5f}, ! Handle
  MAT-CC05 8 HW CONCRETE,                 ! Name
  Rough,                                  ! Roughness
  0.20321,                                ! Thickness {m}
  1.311,                                  ! Conductivity {W/m-K}
  2240,                                   ! Density {kg/m3}
  836.8,                                  ! Specific Heat {J/kg-K}
  0.9,                                    ! Thermal Absorptance
  0.7,                                    ! Solar Absorptance
  0.7;                                    ! Visible Absorptance

OS:Material:NoMass,
  {bd4cdfc4-de67-4dac-9396-0f7e3b86179d}, ! Handle
  CP02 CARPET PAD,                        ! Name
  VeryRough,                              ! Roughness
  0.21648,                                ! Thermal Resistance {m2-K/W}
  0.9,                                    ! Thermal Absorptance
  0.7,                                    ! Solar Absorptance
  0.8;                                    ! Visible Absorptance

OS:Construction,
  {16d02b9e-e132-4dd5-b16e-838e2378f05e}, ! Handle
  AEDG-SmOffice 7A Ext Slab Unheated - 8in Slab with Carpet, ! Name
  ,                                       ! Surface Rendering Name
  {7b0fd5d7-3f69-44f5-8543-783945b98c5f}, ! Layer 1
  {bd4cdfc4-de67-4dac-9396-0f7e3b86179d}; ! Layer 2

OS:ComponentCost:LineItem,
  {fdfe88a8-43e6-4f3d-9f85-08ffe078cc53}, ! Handle
  AEDG-SmOffice 7A Ext Slab Unheated - 8in Slab with Carpet, ! Name
  ,                                       ! Type
  Construction,                           ! Line Item Type
  AEDG-SmOffice 7A Ext Slab Unheated - 8in Slab with Carpet, ! Item Name
  ,                                       ! Object End Use Key
  ,                                       ! Quantity {dimensionless}
  45.52,                                  ! Material Cost {$}
  CostPerArea;                            ! Material Cost Units

