
OS:Version,
  {95eb1b97-6898-479d-840b-1c78a4a20b1b}, ! Handle
  0.9.3;                                  ! Version Identifier

OS:Construction,
  {152602ba-f920-4ed1-816c-b795072e64da}, ! Handle
  189.1-2009 Nonres 5B Window Metal framing curtainwall-storefront, ! Name
  ,                                       ! Surface Rendering Name
  {78436c39-27e3-4007-8001-9572ce1fe27c}; ! Layer 1

OS:WindowMaterial:Glazing,
  {78436c39-27e3-4007-8001-9572ce1fe27c}, ! Handle
  Theoretical Glass [210],                ! Name
  SpectralAverage,                        ! Optical Data Type
  ,                                       ! Window Glass Spectral Data Set Name
  0.003,                                  ! Thickness {m}
  0.329763,                               ! Solar Transmittance at Normal Incidence
  0.620237,                               ! Front Side Solar Reflectance at Normal Incidence
  0.620237,                               ! Back Side Solar Reflectance at Normal Incidence
  0.439975,                               ! Visible Transmittance at Normal Incidence
  0.510025,                               ! Front Side Visible Reflectance at Normal Incidence
  0.510025,                               ! Back Side Visible Reflectance at Normal Incidence
  0,                                      ! Infrared Transmittance at Normal Incidence
  0.9,                                    ! Front Side Infrared Hemispherical Emissivity
  0.9,                                    ! Back Side Infrared Hemispherical Emissivity
  0.00893994;                             ! Conductivity {W/m-K}

OS:ComponentCost:LineItem,
  {ace5d03b-efa3-4ca1-9b90-78f11c1e93f8}, ! Handle
  189.1-2009 Nonres 5B Window Metal framing curtainwall-storefront, ! Name
  ,                                       ! Type
  Construction,                           ! Line Item Type
  189.1-2009 Nonres 5B Window Metal framing curtainwall-storefront, ! Item Name
  ,                                       ! Object End Use Key
  ,                                       ! Quantity {dimensionless}
  586.91,                                 ! Material Cost {$}
  CostPerArea;                            ! Material Cost Units

