
OS:Version,
  {c528102c-1755-4322-aba2-d1fdab8770eb}, ! Handle
  0.9.3;                                  ! Version Identifier

OS:Construction,
  {b241110b-6a15-44b4-97c0-2a7c5007365a}, ! Handle
  90.1 Windows Window Fixed 2511 Vnl-Clr-Std-Clr, ! Name
  ,                                       ! Surface Rendering Name
  {8850078c-ed32-402a-9329-79e1df021b7e}; ! Layer 1

OS:WindowMaterial:Glazing,
  {8850078c-ed32-402a-9329-79e1df021b7e}, ! Handle
  Theoretical Glass [274],                ! Name
  SpectralAverage,                        ! Optical Data Type
  ,                                       ! Window Glass Spectral Data Set Name
  0.003,                                  ! Thickness {m}
  0.622887,                               ! Solar Transmittance at Normal Incidence
  0.327113,                               ! Front Side Solar Reflectance at Normal Incidence
  0.327113,                               ! Back Side Solar Reflectance at Normal Incidence
  0.679844,                               ! Visible Transmittance at Normal Incidence
  0.270156,                               ! Front Side Visible Reflectance at Normal Incidence
  0.270156,                               ! Back Side Visible Reflectance at Normal Incidence
  0,                                      ! Infrared Transmittance at Normal Incidence
  0.9,                                    ! Front Side Infrared Hemispherical Emissivity
  0.9,                                    ! Back Side Infrared Hemispherical Emissivity
  0.0161129;                              ! Conductivity {W/m-K}

OS:ComponentCost:LineItem,
  {06f1826f-9776-4e38-8e47-e13f55f6299b}, ! Handle
  90.1 Windows Window Fixed 2511 Vnl-Clr-Std-Clr, ! Name
  ,                                       ! Type
  Construction,                           ! Line Item Type
  90.1 Windows Window Fixed 2511 Vnl-Clr-Std-Clr, ! Item Name
  ,                                       ! Object End Use Key
  ,                                       ! Quantity {dimensionless}
  0,                                      ! Material Cost {$}
  CostPerArea;                            ! Material Cost Units

OS:ComponentData,
  {b9044641-c62f-40a9-87cb-46cc98c40192}, ! Handle
  Component Data 1,                       ! Name
  {aaa19329-9745-4d65-b9d9-e8dff31ccd21}, ! UUID
  {e7fd8bc6-919f-4c6c-8d62-b52a548c17b6}, ! Version UUID
  1363981002,                             ! Creation Timestamp
  1363981002,                             ! Version Timestamp
  {b241110b-6a15-44b4-97c0-2a7c5007365a}, ! Name of Object 1
  {8850078c-ed32-402a-9329-79e1df021b7e}, ! Name of Object 2
  {06f1826f-9776-4e38-8e47-e13f55f6299b}; ! Name of Object 3

