
OS:Version,
  {5ce994df-7837-491f-8f86-aadec4a5b4bf}, ! Handle
  0.9.3;                                  ! Version Identifier

OS:Material,
  {1b844157-b936-497a-ba15-6b679d65d88d}, ! Handle
  GP01 1/2 GYPSUM 1,                      ! Name
  Smooth,                                 ! Roughness
  0.01271,                                ! Thickness {m}
  0.16,                                   ! Conductivity {W/m-K}
  800,                                    ! Density {kg/m3}
  1090,                                   ! Specific Heat {J/kg-K}
  0.9,                                    ! Thermal Absorptance
  0.7,                                    ! Solar Absorptance
  0.5;                                    ! Visible Absorptance

OS:ComponentCost:LineItem,
  {2159a5de-ee80-4efd-85f2-adf1d23e841b}, ! Handle
  90.1-1999 Res B1 Int Wall,              ! Name
  ,                                       ! Type
  Construction,                           ! Line Item Type
  90.1-1999 Res B1 Int Wall,              ! Item Name
  ,                                       ! Object End Use Key
  ,                                       ! Quantity {dimensionless}
  0,                                      ! Material Cost {$}
  CostPerArea;                            ! Material Cost Units

OS:Construction,
  {823cbeef-8956-4da9-930c-253985a0af1b}, ! Handle
  90.1-1999 Res B1 Int Wall,              ! Name
  ,                                       ! Surface Rendering Name
  {f5f5835e-dfac-4dfc-b46c-8cfd36c3938c}, ! Layer 1
  {f5f5835e-dfac-4dfc-b46c-8cfd36c3938c}; ! Layer 2

OS:Material,
  {f5f5835e-dfac-4dfc-b46c-8cfd36c3938c}, ! Handle
  GP01 1/2 GYPSUM,                        ! Name
  Smooth,                                 ! Roughness
  0.01271,                                ! Thickness {m}
  0.16,                                   ! Conductivity {W/m-K}
  800,                                    ! Density {kg/m3}
  1090,                                   ! Specific Heat {J/kg-K}
  0.9,                                    ! Thermal Absorptance
  0.7,                                    ! Solar Absorptance
  0.5;                                    ! Visible Absorptance

