
OS:Version,
  {59b914ef-f0b1-4c72-bb1b-978fbb7211b5}, ! Handle
  0.9.3;                                  ! Version Identifier

OS:Construction,
  {ad3f5144-7048-437e-89c3-38889448d665}, ! Handle
  90.1-2007 Res 1A Roof Metal Building,   ! Name
  ,                                       ! Surface Rendering Name
  {eaa176b3-b8ea-4ee4-b1c3-3b11741f2017}, ! Layer 1
  {ec233b2c-3be6-4c38-a91e-f4394d2eab46}; ! Layer 2

OS:Material,
  {eaa176b3-b8ea-4ee4-b1c3-3b11741f2017}, ! Handle
  Metal Roofing,                          ! Name
  MediumSmooth,                           ! Roughness
  0.001524,                               ! Thickness {m}
  45.006,                                 ! Conductivity {W/m-K}
  7680,                                   ! Density {kg/m3}
  418.4,                                  ! Specific Heat {J/kg-K}
  0.9,                                    ! Thermal Absorptance
  0.7,                                    ! Solar Absorptance
  0.3;                                    ! Visible Absorptance

OS:Material,
  {ec233b2c-3be6-4c38-a91e-f4394d2eab46}, ! Handle
  Roof Insulation [1],                    ! Name
  MediumRough,                            ! Roughness
  0.123533,                               ! Thickness {m}
  0.049,                                  ! Conductivity {W/m-K}
  265,                                    ! Density {kg/m3}
  836.8,                                  ! Specific Heat {J/kg-K}
  0.9,                                    ! Thermal Absorptance
  0.7,                                    ! Solar Absorptance
  0.7;                                    ! Visible Absorptance

OS:ComponentCost:LineItem,
  {15ee3388-0108-44d7-8e7d-a9f426df9f70}, ! Handle
  90.1-2007 Res 1A Roof Metal Building,   ! Name
  ,                                       ! Type
  Construction,                           ! Line Item Type
  90.1-2007 Res 1A Roof Metal Building,   ! Item Name
  ,                                       ! Object End Use Key
  ,                                       ! Quantity {dimensionless}
  38.206,                                 ! Material Cost {$}
  CostPerArea;                            ! Material Cost Units

