
! 
OS:Version,
  {8503bb35-3288-4176-9c41-752f3d976c4b}, !- Handle
  1.13.0;                                 !- Version Identifier


! 
OS:Material,
  {c1918114-63fd-4b01-919a-a29301b31fed}, !- Handle
  Aislamiento: SATE
WEBER: weber.therm placa PF 140 (0.140 m)
R: 7.0 m2K/W,                             !- Name
  MediumRough,                                 !- Roughness
  0.14,                                    !- Thickness {m}
  0.02,                                    !- Conductivity {W/m-K}
  35.0,                                    !- Density {kg/m3}
  800.0,                                    !- Specific Heat {J/kg-K}
  0.9,                                    !- Thermal Absorptance
  0.6,                                    !- Solar Absorptance
  0.6;                                    !- Visible Absorptance

