
OS:Version,
  {80349f72-0c97-4958-9845-156298523fde}, ! Handle
  0.9.3;                                  ! Version Identifier

OS:Construction,
  {68cc54b5-c5bf-41f3-86c4-30b1a1e9736a}, ! Handle
  Title 24-2008 Nonres 11 Window Fixed,   ! Name
  ,                                       ! Surface Rendering Name
  {6f159b45-9c09-4775-a0d1-e952138847f8}; ! Layer 1

OS:WindowMaterial:Glazing,
  {6f159b45-9c09-4775-a0d1-e952138847f8}, ! Handle
  Theoretical Glass [673],                ! Name
  SpectralAverage,                        ! Optical Data Type
  ,                                       ! Window Glass Spectral Data Set Name
  0.003,                                  ! Thickness {m}
  0.304934,                               ! Solar Transmittance at Normal Incidence
  0.645066,                               ! Front Side Solar Reflectance at Normal Incidence
  0.645066,                               ! Back Side Solar Reflectance at Normal Incidence
  0.310844,                               ! Visible Transmittance at Normal Incidence
  0.639156,                               ! Front Side Visible Reflectance at Normal Incidence
  0.639156,                               ! Back Side Visible Reflectance at Normal Incidence
  0,                                      ! Infrared Transmittance at Normal Incidence
  0.9,                                    ! Front Side Infrared Hemispherical Emissivity
  0.9,                                    ! Back Side Infrared Hemispherical Emissivity
  0.0139798;                              ! Conductivity {W/m-K}

OS:ComponentCost:LineItem,
  {726a65a3-2c55-4632-8bc6-d4312d9af9d0}, ! Handle
  Title 24-2008 Nonres 11 Window Fixed,   ! Name
  ,                                       ! Type
  Construction,                           ! Line Item Type
  Title 24-2008 Nonres 11 Window Fixed,   ! Item Name
  ,                                       ! Object End Use Key
  ,                                       ! Quantity {dimensionless}
  590.138,                                ! Material Cost {$}
  CostPerArea;                            ! Material Cost Units

