
OS:Version,
  {cf720eb9-4091-4036-8731-1d9a2ef9673a}, ! Handle
  0.9.3;                                  ! Version Identifier

OS:Construction,
  {298cdcef-cbd4-448d-9519-345a591aae7d}, ! Handle
  Title 24-2008 Nonres 11 Window Fixed,   ! Name
  ,                                       ! Surface Rendering Name
  {30cc1de4-52a2-47eb-abc5-72e4ede4ffeb}; ! Layer 1

OS:WindowMaterial:Glazing,
  {30cc1de4-52a2-47eb-abc5-72e4ede4ffeb}, ! Handle
  Theoretical Glass [673],                ! Name
  SpectralAverage,                        ! Optical Data Type
  ,                                       ! Window Glass Spectral Data Set Name
  0.003,                                  ! Thickness {m}
  0.304934,                               ! Solar Transmittance at Normal Incidence
  0.645066,                               ! Front Side Solar Reflectance at Normal Incidence
  0.645066,                               ! Back Side Solar Reflectance at Normal Incidence
  0.310844,                               ! Visible Transmittance at Normal Incidence
  0.639156,                               ! Front Side Visible Reflectance at Normal Incidence
  0.639156,                               ! Back Side Visible Reflectance at Normal Incidence
  0,                                      ! Infrared Transmittance at Normal Incidence
  0.9,                                    ! Front Side Infrared Hemispherical Emissivity
  0.9,                                    ! Back Side Infrared Hemispherical Emissivity
  0.0139798;                              ! Conductivity {W/m-K}

OS:ComponentCost:LineItem,
  {187c55d5-a842-4686-97af-b2fd5156aad9}, ! Handle
  Title 24-2008 Nonres 11 Window Fixed,   ! Name
  ,                                       ! Type
  Construction,                           ! Line Item Type
  Title 24-2008 Nonres 11 Window Fixed,   ! Item Name
  ,                                       ! Object End Use Key
  ,                                       ! Quantity {dimensionless}
  590.138,                                ! Material Cost {$}
  CostPerArea;                            ! Material Cost Units

OS:ComponentData,
  {b7db3b0d-8870-4b2f-919a-000d7c21f69c}, ! Handle
  Component Data 1,                       ! Name
  {ae03077f-3632-48ef-82c3-59ed19149b87}, ! UUID
  {c4a12977-5b25-48fc-ade4-5e2427d28b86}, ! Version UUID
  1363982075,                             ! Creation Timestamp
  1363982075,                             ! Version Timestamp
  {298cdcef-cbd4-448d-9519-345a591aae7d}, ! Name of Object 1
  {30cc1de4-52a2-47eb-abc5-72e4ede4ffeb}, ! Name of Object 2
  {187c55d5-a842-4686-97af-b2fd5156aad9}; ! Name of Object 3

