
OS:Version,
  {87cbd547-4284-496f-a229-1a553ace054b}, ! Handle
  0.9.3;                                  ! Version Identifier

OS:Construction,
  {557a5c84-e570-4a22-bc47-125d3c2d3e6a}, ! Handle
  90.1-2004 Nonres 8A Ext Wall Steel-Framed, ! Name
  ,                                       ! Surface Rendering Name
  {4cd10748-a93a-436c-a6cb-5af6fd8495c8}, ! Layer 1
  {0faa78f9-83ed-4f5f-b9a9-a94f30119b75}, ! Layer 2
  {4f937eae-d9c8-465e-be88-7c7495213770}; ! Layer 3

OS:Material:NoMass,
  {4cd10748-a93a-436c-a6cb-5af6fd8495c8}, ! Handle
  MAT-SHEATH,                             ! Name
  Rough,                                  ! Roughness
  0.36256,                                ! Thermal Resistance {m2-K/W}
  0.9,                                    ! Thermal Absorptance
  0.7,                                    ! Solar Absorptance
  0.7;                                    ! Visible Absorptance

OS:Material,
  {0faa78f9-83ed-4f5f-b9a9-a94f30119b75}, ! Handle
  Wall Insulation [10],                   ! Name
  MediumRough,                            ! Roughness
  0.0971136,                              ! Thickness {m}
  0.045,                                  ! Conductivity {W/m-K}
  265,                                    ! Density {kg/m3}
  836.8,                                  ! Specific Heat {J/kg-K}
  0.9,                                    ! Thermal Absorptance
  0.7,                                    ! Solar Absorptance
  0.7;                                    ! Visible Absorptance

OS:Material,
  {4f937eae-d9c8-465e-be88-7c7495213770}, ! Handle
  1/2IN Gypsum,                           ! Name
  Smooth,                                 ! Roughness
  0.01271,                                ! Thickness {m}
  0.16,                                   ! Conductivity {W/m-K}
  784.9,                                  ! Density {kg/m3}
  830,                                    ! Specific Heat {J/kg-K}
  0.9,                                    ! Thermal Absorptance
  0.92,                                   ! Solar Absorptance
  0.92;                                   ! Visible Absorptance

OS:ComponentCost:LineItem,
  {01fdb77d-2085-40b5-9cc4-a58cbd044e99}, ! Handle
  90.1-2004 Nonres 8A Ext Wall Steel-Framed, ! Name
  ,                                       ! Type
  Construction,                           ! Line Item Type
  90.1-2004 Nonres 8A Ext Wall Steel-Framed, ! Item Name
  ,                                       ! Object End Use Key
  ,                                       ! Quantity {dimensionless}
  94.657,                                 ! Material Cost {$}
  CostPerArea;                            ! Material Cost Units

OS:ComponentData,
  {5624965e-a368-4dd7-a27c-49ba1fd3d1dd}, ! Handle
  Component Data 1,                       ! Name
  {09bfa455-763e-47ef-bd22-c1130b6d3846}, ! UUID
  {bef68f94-3da2-46ad-98f0-d1bfac8c235e}, ! Version UUID
  1363981702,                             ! Creation Timestamp
  1363981702,                             ! Version Timestamp
  {557a5c84-e570-4a22-bc47-125d3c2d3e6a}, ! Name of Object 1
  {4cd10748-a93a-436c-a6cb-5af6fd8495c8}, ! Name of Object 2
  {0faa78f9-83ed-4f5f-b9a9-a94f30119b75}, ! Name of Object 3
  {4f937eae-d9c8-465e-be88-7c7495213770}, ! Name of Object 4
  {01fdb77d-2085-40b5-9cc4-a58cbd044e99}; ! Name of Object 5

