
OS:Version,
  {80ffb07d-b378-4aac-a59a-611aa7901165}, ! Handle
  0.9.3;                                  ! Version Identifier

OS:Material,
  {f5a4a8dd-7caf-456f-a642-c8edd963a140}, ! Handle
  Wall Insulation [10],                   ! Name
  MediumRough,                            ! Roughness
  0.0971136,                              ! Thickness {m}
  0.045,                                  ! Conductivity {W/m-K}
  265,                                    ! Density {kg/m3}
  836.8,                                  ! Specific Heat {J/kg-K}
  0.9,                                    ! Thermal Absorptance
  0.7,                                    ! Solar Absorptance
  0.7;                                    ! Visible Absorptance

OS:Material:NoMass,
  {0e8b83f7-4a25-43a4-af4c-17d510f9dbe4}, ! Handle
  MAT-SHEATH,                             ! Name
  Rough,                                  ! Roughness
  0.36256,                                ! Thermal Resistance {m2-K/W}
  0.9,                                    ! Thermal Absorptance
  0.7,                                    ! Solar Absorptance
  0.7;                                    ! Visible Absorptance

OS:ComponentCost:LineItem,
  {2481a443-284b-4530-86c3-1e40ee5cf731}, ! Handle
  90.1-2004 Nonres 8A Ext Wall Steel-Framed, ! Name
  ,                                       ! Type
  Construction,                           ! Line Item Type
  90.1-2004 Nonres 8A Ext Wall Steel-Framed, ! Item Name
  ,                                       ! Object End Use Key
  ,                                       ! Quantity {dimensionless}
  94.657,                                 ! Material Cost {$}
  CostPerArea;                            ! Material Cost Units

OS:Construction,
  {8567a058-31b0-4a6f-b180-a3811623d544}, ! Handle
  90.1-2004 Nonres 8A Ext Wall Steel-Framed, ! Name
  ,                                       ! Surface Rendering Name
  {0e8b83f7-4a25-43a4-af4c-17d510f9dbe4}, ! Layer 1
  {f5a4a8dd-7caf-456f-a642-c8edd963a140}, ! Layer 2
  {f770be7a-cf1f-4225-a99b-282af57b1c9e}; ! Layer 3

OS:Material,
  {f770be7a-cf1f-4225-a99b-282af57b1c9e}, ! Handle
  1/2IN Gypsum,                           ! Name
  Smooth,                                 ! Roughness
  0.01271,                                ! Thickness {m}
  0.16,                                   ! Conductivity {W/m-K}
  784.9,                                  ! Density {kg/m3}
  830,                                    ! Specific Heat {J/kg-K}
  0.9,                                    ! Thermal Absorptance
  0.92,                                   ! Solar Absorptance
  0.92;                                   ! Visible Absorptance

