
OS:Version,
  {a43fb518-067b-449a-8883-f4bc0141d7e9}, ! Handle
  0.9.3;                                  ! Version Identifier

OS:Construction,
  {18adcbe4-0b17-4d88-9adc-eaa246e61960}, ! Handle
  90.1-2007 Nonres 5B Ext Slab Unheated - 8in Slab with Carpet, ! Name
  ,                                       ! Surface Rendering Name
  {16af64ca-b001-4749-825b-8a0de03fcf55}, ! Layer 1
  {9f96d92e-2871-45c7-b0f1-5b8d44b9bca9}; ! Layer 2

OS:Material,
  {16af64ca-b001-4749-825b-8a0de03fcf55}, ! Handle
  MAT-CC05 8 HW CONCRETE,                 ! Name
  Rough,                                  ! Roughness
  0.20321,                                ! Thickness {m}
  1.311,                                  ! Conductivity {W/m-K}
  2240,                                   ! Density {kg/m3}
  836.8,                                  ! Specific Heat {J/kg-K}
  0.9,                                    ! Thermal Absorptance
  0.7,                                    ! Solar Absorptance
  0.7;                                    ! Visible Absorptance

OS:Material:NoMass,
  {9f96d92e-2871-45c7-b0f1-5b8d44b9bca9}, ! Handle
  CP02 CARPET PAD,                        ! Name
  VeryRough,                              ! Roughness
  0.21648,                                ! Thermal Resistance {m2-K/W}
  0.9,                                    ! Thermal Absorptance
  0.7,                                    ! Solar Absorptance
  0.8;                                    ! Visible Absorptance

OS:ComponentCost:LineItem,
  {7ee10793-32f0-4149-a140-fb68962feaf4}, ! Handle
  90.1-2007 Nonres 5B Ext Slab Unheated - 8in Slab with Carpet, ! Name
  ,                                       ! Type
  Construction,                           ! Line Item Type
  90.1-2007 Nonres 5B Ext Slab Unheated - 8in Slab with Carpet, ! Item Name
  ,                                       ! Object End Use Key
  ,                                       ! Quantity {dimensionless}
  45.52,                                  ! Material Cost {$}
  CostPerArea;                            ! Material Cost Units

