
OS:Version,
  {eb6a9ba3-f551-4c60-b177-8bee4cfbd63a}, ! Handle
  0.9.3;                                  ! Version Identifier

OS:Construction,
  {5e92c2d3-38b4-4383-b614-ed12c061d04d}, ! Handle
  Title 24-2008 Nonres 3 Ext Wall Mass,   ! Name
  ,                                       ! Surface Rendering Name
  {d2f606d7-5ddf-4e7f-94ac-21aeb9fe5065}, ! Layer 1
  {250ee221-1d6c-4e8b-a691-e73df39840b0}, ! Layer 2
  {45449a42-5801-48fa-b4e1-73966d7d11dd}, ! Layer 3
  {041a2676-6d7d-4983-bb9c-2d83974c31ec}; ! Layer 4

OS:Material,
  {d2f606d7-5ddf-4e7f-94ac-21aeb9fe5065}, ! Handle
  1IN Stucco,                             ! Name
  Smooth,                                 ! Roughness
  0.0253,                                 ! Thickness {m}
  0.6918,                                 ! Conductivity {W/m-K}
  1858,                                   ! Density {kg/m3}
  837,                                    ! Specific Heat {J/kg-K}
  0.9,                                    ! Thermal Absorptance
  0.92,                                   ! Solar Absorptance
  0.92;                                   ! Visible Absorptance

OS:Material,
  {250ee221-1d6c-4e8b-a691-e73df39840b0}, ! Handle
  8IN Concrete HW,                        ! Name
  MediumRough,                            ! Roughness
  0.2033,                                 ! Thickness {m}
  1.7296,                                 ! Conductivity {W/m-K}
  2243,                                   ! Density {kg/m3}
  837,                                    ! Specific Heat {J/kg-K}
  0.9,                                    ! Thermal Absorptance
  0.65,                                   ! Solar Absorptance
  0.65;                                   ! Visible Absorptance

OS:Material,
  {45449a42-5801-48fa-b4e1-73966d7d11dd}, ! Handle
  Wall Insulation [158],                  ! Name
  MediumRough,                            ! Roughness
  0.0509,                                 ! Thickness {m}
  0.0432,                                 ! Conductivity {W/m-K}
  91,                                     ! Density {kg/m3}
  837,                                    ! Specific Heat {J/kg-K}
  0.9,                                    ! Thermal Absorptance
  0.5,                                    ! Solar Absorptance
  0.5;                                    ! Visible Absorptance

OS:Material,
  {041a2676-6d7d-4983-bb9c-2d83974c31ec}, ! Handle
  1/2IN Gypsum,                           ! Name
  Smooth,                                 ! Roughness
  0.01271,                                ! Thickness {m}
  0.16,                                   ! Conductivity {W/m-K}
  784.9,                                  ! Density {kg/m3}
  830,                                    ! Specific Heat {J/kg-K}
  0.9,                                    ! Thermal Absorptance
  0.92,                                   ! Solar Absorptance
  0.92;                                   ! Visible Absorptance

OS:ComponentCost:LineItem,
  {8a8416ff-f3d3-4727-88cf-c901490b6625}, ! Handle
  Title 24-2008 Nonres 3 Ext Wall Mass,   ! Name
  ,                                       ! Type
  Construction,                           ! Line Item Type
  Title 24-2008 Nonres 3 Ext Wall Mass,   ! Item Name
  ,                                       ! Object End Use Key
  ,                                       ! Quantity {dimensionless}
  211.895,                                ! Material Cost {$}
  CostPerArea;                            ! Material Cost Units

OS:ComponentData,
  {2c1955a7-6113-494b-97e9-3e179ae65819}, ! Handle
  Component Data 1,                       ! Name
  {045c99f9-1c54-49ef-b680-75778cf4dd72}, ! UUID
  {fa9e2c16-e98f-4a96-98e3-8e78c73d6e2a}, ! Version UUID
  1363982001,                             ! Creation Timestamp
  1363982001,                             ! Version Timestamp
  {5e92c2d3-38b4-4383-b614-ed12c061d04d}, ! Name of Object 1
  {d2f606d7-5ddf-4e7f-94ac-21aeb9fe5065}, ! Name of Object 2
  {250ee221-1d6c-4e8b-a691-e73df39840b0}, ! Name of Object 3
  {45449a42-5801-48fa-b4e1-73966d7d11dd}, ! Name of Object 4
  {041a2676-6d7d-4983-bb9c-2d83974c31ec}, ! Name of Object 5
  {8a8416ff-f3d3-4727-88cf-c901490b6625}; ! Name of Object 6

