
OS:Version,
  {4f467a39-94fb-4ee7-96f2-730808b1b7e3}, ! Handle
  0.9.3;                                  ! Version Identifier

OS:Material,
  {af81544a-d1d8-4d6b-954c-5847bf29dd20}, ! Handle
  1IN Stucco,                             ! Name
  Smooth,                                 ! Roughness
  0.0253,                                 ! Thickness {m}
  0.6918,                                 ! Conductivity {W/m-K}
  1858,                                   ! Density {kg/m3}
  837,                                    ! Specific Heat {J/kg-K}
  0.9,                                    ! Thermal Absorptance
  0.92,                                   ! Solar Absorptance
  0.92;                                   ! Visible Absorptance

OS:Material,
  {03f4c5ff-a0b5-40c6-ac45-370ad2eb0351}, ! Handle
  1/2IN Gypsum,                           ! Name
  Smooth,                                 ! Roughness
  0.01271,                                ! Thickness {m}
  0.16,                                   ! Conductivity {W/m-K}
  784.9,                                  ! Density {kg/m3}
  830,                                    ! Specific Heat {J/kg-K}
  0.9,                                    ! Thermal Absorptance
  0.92,                                   ! Solar Absorptance
  0.92;                                   ! Visible Absorptance

OS:Construction,
  {b472ec41-9f16-48aa-bcb1-fd6d34e9a723}, ! Handle
  Title 24-2008 Nonres 3 Ext Wall Mass,   ! Name
  ,                                       ! Surface Rendering Name
  {af81544a-d1d8-4d6b-954c-5847bf29dd20}, ! Layer 1
  {feb059d0-683f-4e2a-b513-640b3ac13134}, ! Layer 2
  {2178a827-49e4-43a5-a845-5b677509ad67}, ! Layer 3
  {03f4c5ff-a0b5-40c6-ac45-370ad2eb0351}; ! Layer 4

OS:Material,
  {feb059d0-683f-4e2a-b513-640b3ac13134}, ! Handle
  8IN Concrete HW,                        ! Name
  MediumRough,                            ! Roughness
  0.2033,                                 ! Thickness {m}
  1.7296,                                 ! Conductivity {W/m-K}
  2243,                                   ! Density {kg/m3}
  837,                                    ! Specific Heat {J/kg-K}
  0.9,                                    ! Thermal Absorptance
  0.65,                                   ! Solar Absorptance
  0.65;                                   ! Visible Absorptance

OS:Material,
  {2178a827-49e4-43a5-a845-5b677509ad67}, ! Handle
  Wall Insulation [158],                  ! Name
  MediumRough,                            ! Roughness
  0.0509,                                 ! Thickness {m}
  0.0432,                                 ! Conductivity {W/m-K}
  91,                                     ! Density {kg/m3}
  837,                                    ! Specific Heat {J/kg-K}
  0.9,                                    ! Thermal Absorptance
  0.5,                                    ! Solar Absorptance
  0.5;                                    ! Visible Absorptance

OS:ComponentCost:LineItem,
  {e0292e5d-ae10-426e-8b3d-ef15ce12bb8a}, ! Handle
  Title 24-2008 Nonres 3 Ext Wall Mass,   ! Name
  ,                                       ! Type
  Construction,                           ! Line Item Type
  Title 24-2008 Nonres 3 Ext Wall Mass,   ! Item Name
  ,                                       ! Object End Use Key
  ,                                       ! Quantity {dimensionless}
  211.895,                                ! Material Cost {$}
  CostPerArea;                            ! Material Cost Units

