
OS:Version,
  {c33fd2c0-2209-47f2-8584-71a280e75022}, ! Handle
  0.9.3;                                  ! Version Identifier

OS:Material,
  {af9a92fa-7d2a-4e3f-8f15-d968ecea7bb2}, ! Handle
  1/2IN Gypsum,                           ! Name
  Smooth,                                 ! Roughness
  0.01271,                                ! Thickness {m}
  0.16,                                   ! Conductivity {W/m-K}
  784.9,                                  ! Density {kg/m3}
  830,                                    ! Specific Heat {J/kg-K}
  0.9,                                    ! Thermal Absorptance
  0.92,                                   ! Solar Absorptance
  0.92;                                   ! Visible Absorptance

OS:Material,
  {fe340c98-75be-43af-b61c-fc0d15b1b0fd}, ! Handle
  Wall Insulation [2],                    ! Name
  MediumRough,                            ! Roughness
  0.0746874,                              ! Thickness {m}
  0.045,                                  ! Conductivity {W/m-K}
  265,                                    ! Density {kg/m3}
  836.8,                                  ! Specific Heat {J/kg-K}
  0.9,                                    ! Thermal Absorptance
  0.7,                                    ! Solar Absorptance
  0.7;                                    ! Visible Absorptance

OS:Construction,
  {8256517c-2aba-434f-9f67-df9ccd1357fb}, ! Handle
  90.1-1999 Res B14 Ext Wall Wood-Framed and Other, ! Name
  ,                                       ! Surface Rendering Name
  {764f77a9-149b-4826-b701-ceaf38f02bf3}, ! Layer 1
  {fe340c98-75be-43af-b61c-fc0d15b1b0fd}, ! Layer 2
  {af9a92fa-7d2a-4e3f-8f15-d968ecea7bb2}; ! Layer 3

OS:Material,
  {764f77a9-149b-4826-b701-ceaf38f02bf3}, ! Handle
  Wood Siding,                            ! Name
  MediumSmooth,                           ! Roughness
  0.01,                                   ! Thickness {m}
  0.11,                                   ! Conductivity {W/m-K}
  544.62,                                 ! Density {kg/m3}
  1210,                                   ! Specific Heat {J/kg-K}
  0.9,                                    ! Thermal Absorptance
  0.78,                                   ! Solar Absorptance
  0.78;                                   ! Visible Absorptance

OS:ComponentCost:LineItem,
  {c7d082dc-4dd8-431f-9a12-1dc3f491f701}, ! Handle
  90.1-1999 Res B14 Ext Wall Wood-Framed and Other, ! Name
  ,                                       ! Type
  Construction,                           ! Line Item Type
  90.1-1999 Res B14 Ext Wall Wood-Framed and Other, ! Item Name
  ,                                       ! Object End Use Key
  ,                                       ! Quantity {dimensionless}
  73.056,                                 ! Material Cost {$}
  CostPerArea;                            ! Material Cost Units

