
OS:Version,
  {5919f74c-f9f7-4c6b-8387-489a410695ce}, ! Handle
  0.9.3;                                  ! Version Identifier

OS:Material,
  {7e2c3f26-84f8-48ae-9fe0-13454b363f98}, ! Handle
  Wood Siding,                            ! Name
  MediumSmooth,                           ! Roughness
  0.01,                                   ! Thickness {m}
  0.11,                                   ! Conductivity {W/m-K}
  544.62,                                 ! Density {kg/m3}
  1210,                                   ! Specific Heat {J/kg-K}
  0.9,                                    ! Thermal Absorptance
  0.78,                                   ! Solar Absorptance
  0.78;                                   ! Visible Absorptance

OS:Construction,
  {84f2ff87-842a-4af3-a857-7f2f8f0bff76}, ! Handle
  90.1-1999 Nonres B10 Ext Wall Wood-Framed and Other, ! Name
  ,                                       ! Surface Rendering Name
  {7e2c3f26-84f8-48ae-9fe0-13454b363f98}, ! Layer 1
  {0b485fff-9fd9-432c-ae0a-c2cf9c4ae8ab}, ! Layer 2
  {c77f529c-07f2-4dc9-98f3-3ea38f47eb30}; ! Layer 3

OS:Material,
  {0b485fff-9fd9-432c-ae0a-c2cf9c4ae8ab}, ! Handle
  Wall Insulation [2],                    ! Name
  MediumRough,                            ! Roughness
  0.0746874,                              ! Thickness {m}
  0.045,                                  ! Conductivity {W/m-K}
  265,                                    ! Density {kg/m3}
  836.8,                                  ! Specific Heat {J/kg-K}
  0.9,                                    ! Thermal Absorptance
  0.7,                                    ! Solar Absorptance
  0.7;                                    ! Visible Absorptance

OS:Material,
  {c77f529c-07f2-4dc9-98f3-3ea38f47eb30}, ! Handle
  1/2IN Gypsum,                           ! Name
  Smooth,                                 ! Roughness
  0.01271,                                ! Thickness {m}
  0.16,                                   ! Conductivity {W/m-K}
  784.9,                                  ! Density {kg/m3}
  830,                                    ! Specific Heat {J/kg-K}
  0.9,                                    ! Thermal Absorptance
  0.92,                                   ! Solar Absorptance
  0.92;                                   ! Visible Absorptance

OS:ComponentCost:LineItem,
  {9c59b576-3baf-428b-959a-790e64b71c77}, ! Handle
  90.1-1999 Nonres B10 Ext Wall Wood-Framed and Other, ! Name
  ,                                       ! Type
  Construction,                           ! Line Item Type
  90.1-1999 Nonres B10 Ext Wall Wood-Framed and Other, ! Item Name
  ,                                       ! Object End Use Key
  ,                                       ! Quantity {dimensionless}
  73.056,                                 ! Material Cost {$}
  CostPerArea;                            ! Material Cost Units

