
OS:Version,
  {ee047af7-58ce-4a98-81f1-8d97d3605118}, ! Handle
  0.9.3;                                  ! Version Identifier

OS:Material,
  {94e96eac-4f36-4808-9847-632697a2d114}, ! Handle
  Roof Insulation [106],                  ! Name
  MediumRough,                            ! Roughness
  0.190659,                               ! Thickness {m}
  0.049,                                  ! Conductivity {W/m-K}
  265,                                    ! Density {kg/m3}
  836.8,                                  ! Specific Heat {J/kg-K}
  0.9,                                    ! Thermal Absorptance
  0.7,                                    ! Solar Absorptance
  0.7;                                    ! Visible Absorptance

OS:Material,
  {e368b6aa-8ed2-428d-a747-a75e0d2128cf}, ! Handle
  1/2IN Gypsum,                           ! Name
  Smooth,                                 ! Roughness
  0.01271,                                ! Thickness {m}
  0.16,                                   ! Conductivity {W/m-K}
  784.9,                                  ! Density {kg/m3}
  830,                                    ! Specific Heat {J/kg-K}
  0.9,                                    ! Thermal Absorptance
  0.92,                                   ! Solar Absorptance
  0.92;                                   ! Visible Absorptance

OS:Construction,
  {826fa5ca-8352-4532-ab38-58ab1ca238e4}, ! Handle
  Title 24-2008 Nonres 4 Roof Attic and Other, ! Name
  ,                                       ! Surface Rendering Name
  {27ec509c-7609-4e9f-84ba-bc7fd2f199a6}, ! Layer 1
  {96bf2e2b-64b4-47e8-aa56-aa123f0dade9}, ! Layer 2
  {94e96eac-4f36-4808-9847-632697a2d114}, ! Layer 3
  {e368b6aa-8ed2-428d-a747-a75e0d2128cf}; ! Layer 4

OS:Material,
  {27ec509c-7609-4e9f-84ba-bc7fd2f199a6}, ! Handle
  Wood Shingles [1],                      ! Name
  VeryRough,                              ! Roughness
  0.0178,                                 ! Thickness {m}
  0.115,                                  ! Conductivity {W/m-K}
  513,                                    ! Density {kg/m3}
  1255,                                   ! Specific Heat {J/kg-K}
  0.9,                                    ! Thermal Absorptance
  0.78,                                   ! Solar Absorptance
  0.85;                                   ! Visible Absorptance

OS:Material,
  {96bf2e2b-64b4-47e8-aa56-aa123f0dade9}, ! Handle
  1IN Wood Decking,                       ! Name
  MediumSmooth,                           ! Roughness
  0.0254,                                 ! Thickness {m}
  0.1211,                                 ! Conductivity {W/m-K}
  593,                                    ! Density {kg/m3}
  2510,                                   ! Specific Heat {J/kg-K}
  0.9,                                    ! Thermal Absorptance
  0.78,                                   ! Solar Absorptance
  0.78;                                   ! Visible Absorptance

OS:ComponentCost:LineItem,
  {66a02e9c-0ab3-45fb-95b4-00b0ad162ad4}, ! Handle
  Title 24-2008 Nonres 4 Roof Attic and Other, ! Name
  ,                                       ! Type
  Construction,                           ! Line Item Type
  Title 24-2008 Nonres 4 Roof Attic and Other, ! Item Name
  ,                                       ! Object End Use Key
  ,                                       ! Quantity {dimensionless}
  33.009,                                 ! Material Cost {$}
  CostPerArea;                            ! Material Cost Units

