
OS:Version,
  {f0f60cf6-cbc2-46cb-ba8c-efec24c474c9}, ! Handle
  0.9.3;                                  ! Version Identifier

OS:Material,
  {8df2c2b9-3889-488a-9187-b64992ca1d95}, ! Handle
  1/2IN Gypsum,                           ! Name
  Smooth,                                 ! Roughness
  0.01271,                                ! Thickness {m}
  0.16,                                   ! Conductivity {W/m-K}
  784.9,                                  ! Density {kg/m3}
  830,                                    ! Specific Heat {J/kg-K}
  0.9,                                    ! Thermal Absorptance
  0.92,                                   ! Solar Absorptance
  0.92;                                   ! Visible Absorptance

OS:Material:NoMass,
  {6439d475-35eb-4b6f-9ebd-493999e2009d}, ! Handle
  MAT-SHEATH,                             ! Name
  Rough,                                  ! Roughness
  0.36256,                                ! Thermal Resistance {m2-K/W}
  0.9,                                    ! Thermal Absorptance
  0.7,                                    ! Solar Absorptance
  0.7;                                    ! Visible Absorptance

OS:Construction,
  {015cf046-945d-479f-97c6-9d5c2b708616}, ! Handle
  90.1-2001 Nonres B12 Ext Wall Steel-Framed, ! Name
  ,                                       ! Surface Rendering Name
  {6439d475-35eb-4b6f-9ebd-493999e2009d}, ! Layer 1
  {b8f0ad8f-ac4f-4841-b96b-93b0fd282d1b}, ! Layer 2
  {8df2c2b9-3889-488a-9187-b64992ca1d95}; ! Layer 3

OS:Material,
  {b8f0ad8f-ac4f-4841-b96b-93b0fd282d1b}, ! Handle
  Wall Insulation [1],                    ! Name
  MediumRough,                            ! Roughness
  0.0373223,                              ! Thickness {m}
  0.045,                                  ! Conductivity {W/m-K}
  265,                                    ! Density {kg/m3}
  836.8,                                  ! Specific Heat {J/kg-K}
  0.9,                                    ! Thermal Absorptance
  0.7,                                    ! Solar Absorptance
  0.7;                                    ! Visible Absorptance

OS:ComponentCost:LineItem,
  {dfeec64f-a27d-4467-9208-6d3b9d2cfd3e}, ! Handle
  90.1-2001 Nonres B12 Ext Wall Steel-Framed, ! Name
  ,                                       ! Type
  Construction,                           ! Line Item Type
  90.1-2001 Nonres B12 Ext Wall Steel-Framed, ! Item Name
  ,                                       ! Object End Use Key
  ,                                       ! Quantity {dimensionless}
  87.08,                                  ! Material Cost {$}
  CostPerArea;                            ! Material Cost Units

