
OS:Version,
  {78cc5e17-edbf-4f38-8833-5916a738ff45}, ! Handle
  0.9.3;                                  ! Version Identifier

OS:Construction,
  {411dd129-a89f-4cd0-a6a7-10634aa11983}, ! Handle
  90.1-2001 Nonres B12 Ext Wall Steel-Framed, ! Name
  ,                                       ! Surface Rendering Name
  {0425e6bc-3d17-40ca-ba3c-016446973207}, ! Layer 1
  {82c7da0b-3385-4474-b04a-0b87a207342c}, ! Layer 2
  {85ff50dc-d90e-41ce-a640-6e7bc948beee}; ! Layer 3

OS:Material:NoMass,
  {0425e6bc-3d17-40ca-ba3c-016446973207}, ! Handle
  MAT-SHEATH,                             ! Name
  Rough,                                  ! Roughness
  0.36256,                                ! Thermal Resistance {m2-K/W}
  0.9,                                    ! Thermal Absorptance
  0.7,                                    ! Solar Absorptance
  0.7;                                    ! Visible Absorptance

OS:Material,
  {82c7da0b-3385-4474-b04a-0b87a207342c}, ! Handle
  Wall Insulation [1],                    ! Name
  MediumRough,                            ! Roughness
  0.0373223,                              ! Thickness {m}
  0.045,                                  ! Conductivity {W/m-K}
  265,                                    ! Density {kg/m3}
  836.8,                                  ! Specific Heat {J/kg-K}
  0.9,                                    ! Thermal Absorptance
  0.7,                                    ! Solar Absorptance
  0.7;                                    ! Visible Absorptance

OS:Material,
  {85ff50dc-d90e-41ce-a640-6e7bc948beee}, ! Handle
  1/2IN Gypsum,                           ! Name
  Smooth,                                 ! Roughness
  0.01271,                                ! Thickness {m}
  0.16,                                   ! Conductivity {W/m-K}
  784.9,                                  ! Density {kg/m3}
  830,                                    ! Specific Heat {J/kg-K}
  0.9,                                    ! Thermal Absorptance
  0.92,                                   ! Solar Absorptance
  0.92;                                   ! Visible Absorptance

OS:ComponentCost:LineItem,
  {80dc162c-1c09-42cc-a912-0e0dbc1e6a80}, ! Handle
  90.1-2001 Nonres B12 Ext Wall Steel-Framed, ! Name
  ,                                       ! Type
  Construction,                           ! Line Item Type
  90.1-2001 Nonres B12 Ext Wall Steel-Framed, ! Item Name
  ,                                       ! Object End Use Key
  ,                                       ! Quantity {dimensionless}
  87.08,                                  ! Material Cost {$}
  CostPerArea;                            ! Material Cost Units

OS:ComponentData,
  {a47ac5cd-1e49-40fa-8495-f883457efd93}, ! Handle
  Component Data 1,                       ! Name
  {d9983a7c-86c6-4d74-ad26-2059884d1891}, ! UUID
  {0c915ef8-db6c-4d06-81a1-f8b8eed3dfe6}, ! Version UUID
  1363981351,                             ! Creation Timestamp
  1363981351,                             ! Version Timestamp
  {411dd129-a89f-4cd0-a6a7-10634aa11983}, ! Name of Object 1
  {0425e6bc-3d17-40ca-ba3c-016446973207}, ! Name of Object 2
  {82c7da0b-3385-4474-b04a-0b87a207342c}, ! Name of Object 3
  {85ff50dc-d90e-41ce-a640-6e7bc948beee}, ! Name of Object 4
  {80dc162c-1c09-42cc-a912-0e0dbc1e6a80}; ! Name of Object 5

