
OS:Version,
  {70d42392-e686-4636-86a4-73307b1010eb}, ! Handle
  0.9.3;                                  ! Version Identifier

OS:Material,
  {c7b3a9e9-57c7-4d08-89dc-a89f7638060d}, ! Handle
  Wood Shingles,                          ! Name
  VeryRough,                              ! Roughness
  0.0178,                                 ! Thickness {m}
  0.115,                                  ! Conductivity {W/m-K}
  513,                                    ! Density {kg/m3}
  1255,                                   ! Specific Heat {J/kg-K}
  0.9,                                    ! Thermal Absorptance
  0.78,                                   ! Solar Absorptance
  0.78;                                   ! Visible Absorptance

OS:Construction,
  {ef09a33f-28e5-494b-950f-cf9d43a6a02f}, ! Handle
  90.1-2001 Res B26 Roof Attic and Other, ! Name
  ,                                       ! Surface Rendering Name
  {c7b3a9e9-57c7-4d08-89dc-a89f7638060d}, ! Layer 1
  {4ba21004-e447-4bc9-a05c-90b0ac9c8a7a}, ! Layer 2
  {3fa0f7ff-5a4e-4ee2-83c2-45d54a3bf7da}, ! Layer 3
  {11d0c25c-2dff-4a2f-980f-5c393c36c0ac}; ! Layer 4

OS:Material,
  {4ba21004-e447-4bc9-a05c-90b0ac9c8a7a}, ! Handle
  1IN Wood Decking,                       ! Name
  MediumSmooth,                           ! Roughness
  0.0254,                                 ! Thickness {m}
  0.1211,                                 ! Conductivity {W/m-K}
  593,                                    ! Density {kg/m3}
  2510,                                   ! Specific Heat {J/kg-K}
  0.9,                                    ! Thermal Absorptance
  0.78,                                   ! Solar Absorptance
  0.78;                                   ! Visible Absorptance

OS:Material,
  {3fa0f7ff-5a4e-4ee2-83c2-45d54a3bf7da}, ! Handle
  Roof Insulation [11],                   ! Name
  MediumRough,                            ! Roughness
  0.474289,                               ! Thickness {m}
  0.049,                                  ! Conductivity {W/m-K}
  265,                                    ! Density {kg/m3}
  836.8,                                  ! Specific Heat {J/kg-K}
  0.9,                                    ! Thermal Absorptance
  0.7,                                    ! Solar Absorptance
  0.7;                                    ! Visible Absorptance

OS:Material,
  {11d0c25c-2dff-4a2f-980f-5c393c36c0ac}, ! Handle
  1/2IN Gypsum,                           ! Name
  Smooth,                                 ! Roughness
  0.01271,                                ! Thickness {m}
  0.16,                                   ! Conductivity {W/m-K}
  784.9,                                  ! Density {kg/m3}
  830,                                    ! Specific Heat {J/kg-K}
  0.9,                                    ! Thermal Absorptance
  0.92,                                   ! Solar Absorptance
  0.92;                                   ! Visible Absorptance

OS:ComponentCost:LineItem,
  {f383eda7-fda3-4032-bd2c-c6032bfd9c33}, ! Handle
  90.1-2001 Res B26 Roof Attic and Other, ! Name
  ,                                       ! Type
  Construction,                           ! Line Item Type
  90.1-2001 Res B26 Roof Attic and Other, ! Item Name
  ,                                       ! Object End Use Key
  ,                                       ! Quantity {dimensionless}
  38.449,                                 ! Material Cost {$}
  CostPerArea;                            ! Material Cost Units

