
OS:Version,
  {01df42a0-5db0-45db-aef6-b2b6895a3646}, !- Handle
  1.1.0;                                  !- Version Identifier

OS:Construction,
  {54a0c8a3-d5e5-4f2c-95f5-e5367aa039bf}, !- Handle
  Sgl Ref-B-L Tint 6mm,                   !- Name
  ,                                       !- Surface Rendering Name
  {fd9a66e5-b5a2-4f69-a732-0adadc699fb9}; !- Layer 1

OS:WindowMaterial:Glazing,
  {fd9a66e5-b5a2-4f69-a732-0adadc699fb9}, !- Handle
  REF B TINT LO 6MM,                      !- Name
  SpectralAverage,                        !- Optical Data Type
  ,                                       !- Window Glass Spectral Data Set Name
  0.006,                                  !- Thickness {m}
  0.04,                                   !- Solar Transmittance at Normal Incidence
  0.13,                                   !- Front Side Solar Reflectance at Normal Incidence
  0.42,                                   !- Back Side Solar Reflectance at Normal Incidence
  0.05,                                   !- Visible Transmittance at Normal Incidence
  0.09,                                   !- Front Side Visible Reflectance at Normal Incidence
  0.28,                                   !- Back Side Visible Reflectance at Normal Incidence
  0,                                      !- Infrared Transmittance at Normal Incidence
  0.84,                                   !- Front Side Infrared Hemispherical Emissivity
  0.41,                                   !- Back Side Infrared Hemispherical Emissivity
  0.9;                                    !- Conductivity {W/m-K}

OS:ComponentData,
  {59a6897e-99fe-4f4f-974a-5070c62b8af4}, !- Handle
  Component Data 1,                       !- Name
  {a8afe81f-36ca-44c1-8c18-9ffcb5df7c1b}, !- UUID
  {4bffee4c-860f-4512-8a54-4cee3ada126c}, !- Version UUID
  1384380194,                             !- Creation Timestamp
  1384380194,                             !- Version Timestamp
  {54a0c8a3-d5e5-4f2c-95f5-e5367aa039bf}, !- Name of Object 1
  {fd9a66e5-b5a2-4f69-a732-0adadc699fb9}; !- Name of Object 2

