
OS:Version,
  {1cf5501f-9621-4e2f-a62f-81155912b052}, !- Handle
  1.1.0;                                  !- Version Identifier

OS:Construction,
  {5837ce14-62ad-46ed-a68d-d130134efe42}, !- Handle
  Sgl Ref-B-L Tint 6mm,                   !- Name
  ,                                       !- Surface Rendering Name
  {9fa831b9-ff91-45cb-aa59-f872012daa31}; !- Layer 1

OS:WindowMaterial:Glazing,
  {9fa831b9-ff91-45cb-aa59-f872012daa31}, !- Handle
  REF B TINT LO 6MM,                      !- Name
  SpectralAverage,                        !- Optical Data Type
  ,                                       !- Window Glass Spectral Data Set Name
  0.006,                                  !- Thickness {m}
  0.04,                                   !- Solar Transmittance at Normal Incidence
  0.13,                                   !- Front Side Solar Reflectance at Normal Incidence
  0.42,                                   !- Back Side Solar Reflectance at Normal Incidence
  0.05,                                   !- Visible Transmittance at Normal Incidence
  0.09,                                   !- Front Side Visible Reflectance at Normal Incidence
  0.28,                                   !- Back Side Visible Reflectance at Normal Incidence
  0,                                      !- Infrared Transmittance at Normal Incidence
  0.84,                                   !- Front Side Infrared Hemispherical Emissivity
  0.41,                                   !- Back Side Infrared Hemispherical Emissivity
  0.9;                                    !- Conductivity {W/m-K}

