
OS:Version,
  {74e03116-72fe-4996-9147-5643a13f59d0}, ! Handle
  0.9.3;                                  ! Version Identifier

OS:Construction,
  {b04563e1-866a-438a-956d-448fc89e80ab}, ! Handle
  90.1-2004 Res 3A Ext Slab Unheated - 4in Slab with Carpet, ! Name
  ,                                       ! Surface Rendering Name
  {dd6377e2-d002-4e8b-99f0-8c426285a7c4}, ! Layer 1
  {c2f87790-3af6-425c-8d2b-4fe524d830de}; ! Layer 2

OS:Material,
  {dd6377e2-d002-4e8b-99f0-8c426285a7c4}, ! Handle
  MAT-CC05 4 HW CONCRETE,                 ! Name
  Rough,                                  ! Roughness
  0.1016,                                 ! Thickness {m}
  1.311,                                  ! Conductivity {W/m-K}
  2240,                                   ! Density {kg/m3}
  836.8,                                  ! Specific Heat {J/kg-K}
  0.9,                                    ! Thermal Absorptance
  0.7,                                    ! Solar Absorptance
  0.7;                                    ! Visible Absorptance

OS:Material:NoMass,
  {c2f87790-3af6-425c-8d2b-4fe524d830de}, ! Handle
  CP02 CARPET PAD,                        ! Name
  VeryRough,                              ! Roughness
  0.21648,                                ! Thermal Resistance {m2-K/W}
  0.9,                                    ! Thermal Absorptance
  0.7,                                    ! Solar Absorptance
  0.8;                                    ! Visible Absorptance

OS:ComponentCost:LineItem,
  {5a982e54-fc69-44c2-b50d-704aed61f76c}, ! Handle
  90.1-2004 Res 3A Ext Slab Unheated - 4in Slab with Carpet, ! Name
  ,                                       ! Type
  Construction,                           ! Line Item Type
  90.1-2004 Res 3A Ext Slab Unheated - 4in Slab with Carpet, ! Item Name
  ,                                       ! Object End Use Key
  ,                                       ! Quantity {dimensionless}
  45.52,                                  ! Material Cost {$}
  CostPerArea;                            ! Material Cost Units

