
OS:Version,
  {b871eb6d-f723-47a1-921a-ead346745973}, ! Handle
  0.9.3;                                  ! Version Identifier

OS:Construction,
  {ac540dc7-59c9-4399-aecc-82a37fd785f9}, ! Handle
  90.1-1999 Res B21 Roof IEAD,            ! Name
  ,                                       ! Surface Rendering Name
  {ad9cb55e-426d-402e-bb6e-3645e5e970be}, ! Layer 1
  {20fc1af8-aaad-4490-998a-3f746c314492}, ! Layer 2
  {eb6f24c8-88df-4dcb-9a20-db36e5373bfd}; ! Layer 3

OS:Material,
  {ad9cb55e-426d-402e-bb6e-3645e5e970be}, ! Handle
  Roof Membrane,                          ! Name
  VeryRough,                              ! Roughness
  0.0095,                                 ! Thickness {m}
  0.16,                                   ! Conductivity {W/m-K}
  1121.29,                                ! Density {kg/m3}
  1460,                                   ! Specific Heat {J/kg-K}
  0.9,                                    ! Thermal Absorptance
  0.7,                                    ! Solar Absorptance
  0.7;                                    ! Visible Absorptance

OS:Material,
  {20fc1af8-aaad-4490-998a-3f746c314492}, ! Handle
  Roof Insulation [12],                   ! Name
  MediumRough,                            ! Roughness
  0.167635,                               ! Thickness {m}
  0.049,                                  ! Conductivity {W/m-K}
  265,                                    ! Density {kg/m3}
  836.8,                                  ! Specific Heat {J/kg-K}
  0.9,                                    ! Thermal Absorptance
  0.7,                                    ! Solar Absorptance
  0.7;                                    ! Visible Absorptance

OS:Material,
  {eb6f24c8-88df-4dcb-9a20-db36e5373bfd}, ! Handle
  Metal Decking,                          ! Name
  MediumSmooth,                           ! Roughness
  0.001524,                               ! Thickness {m}
  45.006,                                 ! Conductivity {W/m-K}
  7680,                                   ! Density {kg/m3}
  418.4,                                  ! Specific Heat {J/kg-K}
  0.9,                                    ! Thermal Absorptance
  0.7,                                    ! Solar Absorptance
  0.3;                                    ! Visible Absorptance

OS:ComponentCost:LineItem,
  {fe8d90d8-697f-4349-8dba-f4b75cc7638a}, ! Handle
  90.1-1999 Res B21 Roof IEAD,            ! Name
  ,                                       ! Type
  Construction,                           ! Line Item Type
  90.1-1999 Res B21 Roof IEAD,            ! Item Name
  ,                                       ! Object End Use Key
  ,                                       ! Quantity {dimensionless}
  52.902,                                 ! Material Cost {$}
  CostPerArea;                            ! Material Cost Units

OS:ComponentData,
  {45bd92da-b15d-457a-8918-8d745c2143d6}, ! Handle
  Component Data 1,                       ! Name
  {95ee928d-d4b1-4bb0-b933-0384c4f8fbb5}, ! UUID
  {b73ca2f9-ab54-4da7-8d40-0ec340a65dfe}, ! Version UUID
  1363981255,                             ! Creation Timestamp
  1363981255,                             ! Version Timestamp
  {ac540dc7-59c9-4399-aecc-82a37fd785f9}, ! Name of Object 1
  {ad9cb55e-426d-402e-bb6e-3645e5e970be}, ! Name of Object 2
  {20fc1af8-aaad-4490-998a-3f746c314492}, ! Name of Object 3
  {eb6f24c8-88df-4dcb-9a20-db36e5373bfd}, ! Name of Object 4
  {fe8d90d8-697f-4349-8dba-f4b75cc7638a}; ! Name of Object 5

