
OS:Version,
  {76dc9842-e25d-44a4-8a0e-cdfcdfea88c9}, ! Handle
  0.9.3;                                  ! Version Identifier

OS:WindowMaterial:Glazing,
  {6f51e1cb-532b-432a-881b-c4d7cfdc88d8}, ! Handle
  Theoretical Glass [196],                ! Name
  SpectralAverage,                        ! Optical Data Type
  ,                                       ! Window Glass Spectral Data Set Name
  0.003,                                  ! Thickness {m}
  0.172982,                               ! Solar Transmittance at Normal Incidence
  0.777018,                               ! Front Side Solar Reflectance at Normal Incidence
  0.777018,                               ! Back Side Solar Reflectance at Normal Incidence
  0.242683,                               ! Visible Transmittance at Normal Incidence
  0.707317,                               ! Front Side Visible Reflectance at Normal Incidence
  0.707317,                               ! Back Side Visible Reflectance at Normal Incidence
  0,                                      ! Infrared Transmittance at Normal Incidence
  0.9,                                    ! Front Side Infrared Hemispherical Emissivity
  0.9,                                    ! Back Side Infrared Hemispherical Emissivity
  0.0207247;                              ! Conductivity {W/m-K}

OS:ComponentCost:LineItem,
  {be4ad400-bf33-4134-a198-a400bfe8fd4c}, ! Handle
  189.1-2009 Res 1A Skylight without Curb, ! Name
  ,                                       ! Type
  Construction,                           ! Line Item Type
  189.1-2009 Res 1A Skylight without Curb, ! Item Name
  ,                                       ! Object End Use Key
  ,                                       ! Quantity {dimensionless}
  572.169,                                ! Material Cost {$}
  CostPerArea;                            ! Material Cost Units

OS:Construction,
  {18eecea9-d393-4d60-84eb-302d06befbbf}, ! Handle
  189.1-2009 Res 1A Skylight without Curb, ! Name
  ,                                       ! Surface Rendering Name
  {6f51e1cb-532b-432a-881b-c4d7cfdc88d8}; ! Layer 1

