
OS:Version,
  {0fc56bb0-5938-4a99-890a-d4cefcf89304}, ! Handle
  0.9.3;                                  ! Version Identifier

OS:ComponentCost:LineItem,
  {ae6c5c53-8961-48b9-9d9b-480edd78a0ab}, ! Handle
  90.1-1999 Nonres B25 Roof IEAD,         ! Name
  ,                                       ! Type
  Construction,                           ! Line Item Type
  90.1-1999 Nonres B25 Roof IEAD,         ! Item Name
  ,                                       ! Object End Use Key
  ,                                       ! Quantity {dimensionless}
  52.896,                                 ! Material Cost {$}
  CostPerArea;                            ! Material Cost Units

OS:Material,
  {bfd162ca-5fa2-4e0f-b2bb-cb865c434ee9}, ! Handle
  Roof Insulation [7],                    ! Name
  MediumRough,                            ! Roughness
  0.167563,                               ! Thickness {m}
  0.049,                                  ! Conductivity {W/m-K}
  265,                                    ! Density {kg/m3}
  836.8,                                  ! Specific Heat {J/kg-K}
  0.9,                                    ! Thermal Absorptance
  0.7,                                    ! Solar Absorptance
  0.7;                                    ! Visible Absorptance

OS:Construction,
  {c08fba2f-6acf-40c7-9d15-61c51dea3cb6}, ! Handle
  90.1-1999 Nonres B25 Roof IEAD,         ! Name
  ,                                       ! Surface Rendering Name
  {9e9c5a88-bad1-4043-ba3c-6886940d12bf}, ! Layer 1
  {bfd162ca-5fa2-4e0f-b2bb-cb865c434ee9}, ! Layer 2
  {2bf1cfa4-8b7c-4129-935a-37381992e5b0}; ! Layer 3

OS:Material,
  {9e9c5a88-bad1-4043-ba3c-6886940d12bf}, ! Handle
  Roof Membrane,                          ! Name
  VeryRough,                              ! Roughness
  0.0095,                                 ! Thickness {m}
  0.16,                                   ! Conductivity {W/m-K}
  1121.29,                                ! Density {kg/m3}
  1460,                                   ! Specific Heat {J/kg-K}
  0.9,                                    ! Thermal Absorptance
  0.7,                                    ! Solar Absorptance
  0.7;                                    ! Visible Absorptance

OS:Material,
  {2bf1cfa4-8b7c-4129-935a-37381992e5b0}, ! Handle
  Metal Decking,                          ! Name
  MediumSmooth,                           ! Roughness
  0.001524,                               ! Thickness {m}
  45.006,                                 ! Conductivity {W/m-K}
  7680,                                   ! Density {kg/m3}
  418.4,                                  ! Specific Heat {J/kg-K}
  0.9,                                    ! Thermal Absorptance
  0.7,                                    ! Solar Absorptance
  0.3;                                    ! Visible Absorptance

