
OS:Version,
  {aa21bb90-46db-419f-9507-b29a2419af8d}, ! Handle
  0.9.3;                                  ! Version Identifier

OS:Construction,
  {a9be1119-8ad0-4d43-bbf5-577a29755849}, ! Handle
  90.1-1999 Nonres B25 Roof IEAD,         ! Name
  ,                                       ! Surface Rendering Name
  {89d6147d-942e-4f54-95fe-1186d32ce9e2}, ! Layer 1
  {0442e1d5-6e7b-4c68-81ce-66b6119adb65}, ! Layer 2
  {c563fd6f-cc15-4cd0-b45f-45f80b837c8e}; ! Layer 3

OS:Material,
  {89d6147d-942e-4f54-95fe-1186d32ce9e2}, ! Handle
  Roof Membrane,                          ! Name
  VeryRough,                              ! Roughness
  0.0095,                                 ! Thickness {m}
  0.16,                                   ! Conductivity {W/m-K}
  1121.29,                                ! Density {kg/m3}
  1460,                                   ! Specific Heat {J/kg-K}
  0.9,                                    ! Thermal Absorptance
  0.7,                                    ! Solar Absorptance
  0.7;                                    ! Visible Absorptance

OS:Material,
  {0442e1d5-6e7b-4c68-81ce-66b6119adb65}, ! Handle
  Roof Insulation [7],                    ! Name
  MediumRough,                            ! Roughness
  0.167563,                               ! Thickness {m}
  0.049,                                  ! Conductivity {W/m-K}
  265,                                    ! Density {kg/m3}
  836.8,                                  ! Specific Heat {J/kg-K}
  0.9,                                    ! Thermal Absorptance
  0.7,                                    ! Solar Absorptance
  0.7;                                    ! Visible Absorptance

OS:Material,
  {c563fd6f-cc15-4cd0-b45f-45f80b837c8e}, ! Handle
  Metal Decking,                          ! Name
  MediumSmooth,                           ! Roughness
  0.001524,                               ! Thickness {m}
  45.006,                                 ! Conductivity {W/m-K}
  7680,                                   ! Density {kg/m3}
  418.4,                                  ! Specific Heat {J/kg-K}
  0.9,                                    ! Thermal Absorptance
  0.7,                                    ! Solar Absorptance
  0.3;                                    ! Visible Absorptance

OS:ComponentCost:LineItem,
  {51022ffb-88d7-441a-929d-f530df8748ce}, ! Handle
  90.1-1999 Nonres B25 Roof IEAD,         ! Name
  ,                                       ! Type
  Construction,                           ! Line Item Type
  90.1-1999 Nonres B25 Roof IEAD,         ! Item Name
  ,                                       ! Object End Use Key
  ,                                       ! Quantity {dimensionless}
  52.896,                                 ! Material Cost {$}
  CostPerArea;                            ! Material Cost Units

OS:ComponentData,
  {21e41032-04c3-4e37-be32-98e2073ce104}, ! Handle
  Component Data 1,                       ! Name
  {e0579ffe-8733-49f5-960a-7fb519ef1495}, ! UUID
  {f246d15f-d472-4693-a760-4870db6d2053}, ! Version UUID
  1363981152,                             ! Creation Timestamp
  1363981152,                             ! Version Timestamp
  {a9be1119-8ad0-4d43-bbf5-577a29755849}, ! Name of Object 1
  {89d6147d-942e-4f54-95fe-1186d32ce9e2}, ! Name of Object 2
  {0442e1d5-6e7b-4c68-81ce-66b6119adb65}, ! Name of Object 3
  {c563fd6f-cc15-4cd0-b45f-45f80b837c8e}, ! Name of Object 4
  {51022ffb-88d7-441a-929d-f530df8748ce}; ! Name of Object 5

