
OS:Version,
  {e315b27f-5a7a-4501-8c05-2ccebccf5417}, ! Handle
  0.9.3;                                  ! Version Identifier

OS:Construction,
  {c35350ec-145d-463a-aeeb-355d64fecde9}, ! Handle
  189.1-2009 Nonres 1A Roof IEAD,         ! Name
  ,                                       ! Surface Rendering Name
  {5ecad51f-5c70-4808-b1c0-851a1ac7c9d1}, ! Layer 1
  {990c33b8-e2fb-4c26-a811-8466acfb2681}, ! Layer 2
  {a395368f-9260-43dd-848d-eb0aa36caa31}; ! Layer 3

OS:Material,
  {5ecad51f-5c70-4808-b1c0-851a1ac7c9d1}, ! Handle
  Roof Membrane,                          ! Name
  VeryRough,                              ! Roughness
  0.0095,                                 ! Thickness {m}
  0.16,                                   ! Conductivity {W/m-K}
  1121.29,                                ! Density {kg/m3}
  1460,                                   ! Specific Heat {J/kg-K}
  0.9,                                    ! Thermal Absorptance
  0.7,                                    ! Solar Absorptance
  0.7;                                    ! Visible Absorptance

OS:Material,
  {990c33b8-e2fb-4c26-a811-8466acfb2681}, ! Handle
  Roof Insulation [18],                   ! Name
  MediumRough,                            ! Roughness
  0.169324,                               ! Thickness {m}
  0.049,                                  ! Conductivity {W/m-K}
  265,                                    ! Density {kg/m3}
  836.8,                                  ! Specific Heat {J/kg-K}
  0.9,                                    ! Thermal Absorptance
  0.7,                                    ! Solar Absorptance
  0.7;                                    ! Visible Absorptance

OS:Material,
  {a395368f-9260-43dd-848d-eb0aa36caa31}, ! Handle
  Metal Decking,                          ! Name
  MediumSmooth,                           ! Roughness
  0.001524,                               ! Thickness {m}
  45.006,                                 ! Conductivity {W/m-K}
  7680,                                   ! Density {kg/m3}
  418.4,                                  ! Specific Heat {J/kg-K}
  0.9,                                    ! Thermal Absorptance
  0.7,                                    ! Solar Absorptance
  0.3;                                    ! Visible Absorptance

OS:ComponentCost:LineItem,
  {9dd1508f-a6b0-4fd5-b287-8b7169087cdc}, ! Handle
  189.1-2009 Nonres 1A Roof IEAD,         ! Name
  ,                                       ! Type
  Construction,                           ! Line Item Type
  189.1-2009 Nonres 1A Roof IEAD,         ! Item Name
  ,                                       ! Object End Use Key
  ,                                       ! Quantity {dimensionless}
  53.082,                                 ! Material Cost {$}
  CostPerArea;                            ! Material Cost Units

OS:ComponentData,
  {ce052554-a4ed-4acf-a18b-8e9ce8c6077f}, ! Handle
  Component Data 1,                       ! Name
  {f48a5ba7-1e1b-4d50-883a-107b0bb6f91a}, ! UUID
  {91fdb2a1-4648-4db5-87cd-d75803ae5791}, ! Version UUID
  1363979817,                             ! Creation Timestamp
  1363979817,                             ! Version Timestamp
  {c35350ec-145d-463a-aeeb-355d64fecde9}, ! Name of Object 1
  {5ecad51f-5c70-4808-b1c0-851a1ac7c9d1}, ! Name of Object 2
  {990c33b8-e2fb-4c26-a811-8466acfb2681}, ! Name of Object 3
  {a395368f-9260-43dd-848d-eb0aa36caa31}, ! Name of Object 4
  {9dd1508f-a6b0-4fd5-b287-8b7169087cdc}; ! Name of Object 5

