
OS:Version,
  {0e6eac61-5fd8-4d8f-aab0-f2354bc13141}, ! Handle
  0.9.3;                                  ! Version Identifier

OS:Material,
  {54518930-4484-48be-82dd-2c68a9fa2527}, ! Handle
  Roof Insulation [18],                   ! Name
  MediumRough,                            ! Roughness
  0.169324,                               ! Thickness {m}
  0.049,                                  ! Conductivity {W/m-K}
  265,                                    ! Density {kg/m3}
  836.8,                                  ! Specific Heat {J/kg-K}
  0.9,                                    ! Thermal Absorptance
  0.7,                                    ! Solar Absorptance
  0.7;                                    ! Visible Absorptance

OS:Material,
  {443ea002-598b-43f7-827c-201317737b6f}, ! Handle
  Metal Decking,                          ! Name
  MediumSmooth,                           ! Roughness
  0.001524,                               ! Thickness {m}
  45.006,                                 ! Conductivity {W/m-K}
  7680,                                   ! Density {kg/m3}
  418.4,                                  ! Specific Heat {J/kg-K}
  0.9,                                    ! Thermal Absorptance
  0.7,                                    ! Solar Absorptance
  0.3;                                    ! Visible Absorptance

OS:Construction,
  {88fff7c3-7f18-4ac8-84d6-c4264b5a4491}, ! Handle
  189.1-2009 Nonres 1A Roof IEAD,         ! Name
  ,                                       ! Surface Rendering Name
  {d81879ce-ffbc-47d2-a246-95d5cb8897b6}, ! Layer 1
  {54518930-4484-48be-82dd-2c68a9fa2527}, ! Layer 2
  {443ea002-598b-43f7-827c-201317737b6f}; ! Layer 3

OS:Material,
  {d81879ce-ffbc-47d2-a246-95d5cb8897b6}, ! Handle
  Roof Membrane,                          ! Name
  VeryRough,                              ! Roughness
  0.0095,                                 ! Thickness {m}
  0.16,                                   ! Conductivity {W/m-K}
  1121.29,                                ! Density {kg/m3}
  1460,                                   ! Specific Heat {J/kg-K}
  0.9,                                    ! Thermal Absorptance
  0.7,                                    ! Solar Absorptance
  0.7;                                    ! Visible Absorptance

OS:ComponentCost:LineItem,
  {662fa31a-a718-45ca-9caa-435ef94b8e0c}, ! Handle
  189.1-2009 Nonres 1A Roof IEAD,         ! Name
  ,                                       ! Type
  Construction,                           ! Line Item Type
  189.1-2009 Nonres 1A Roof IEAD,         ! Item Name
  ,                                       ! Object End Use Key
  ,                                       ! Quantity {dimensionless}
  53.082,                                 ! Material Cost {$}
  CostPerArea;                            ! Material Cost Units

