
! 
OS:Version,
  {8503bb35-3288-4176-9c41-752f3d976c4b}, !- Handle
  1.13.0;                                 !- Version Identifier


! 
OS:Material,
  {a743c597-fd2a-4b97-ab81-d2495a632988}, !- Handle
  Aislamiento: SATE
WEBER: weber.therm placa EPS 120 (0.120 m)
R: 3.2 m2K/W,                             !- Name
  MediumRough,                                 !- Roughness
  0.12,                                    !- Thickness {m}
  0.037,                                    !- Conductivity {W/m-K}
  15.0,                                    !- Density {kg/m3}
  800.0,                                    !- Specific Heat {J/kg-K}
  0.9,                                    !- Thermal Absorptance
  0.6,                                    !- Solar Absorptance
  0.6;                                    !- Visible Absorptance

