
OS:Version,
  {a20e19a4-e1f8-4b3f-bc11-49be84dc124e}, ! Handle
  0.9.3;                                  ! Version Identifier

OS:Construction,
  {dce011a4-e849-4731-871c-3910330e2247}, ! Handle
  90.1-2004 Nonres 3A Ext Slab Unheated - 8in Slab with Carpet, ! Name
  ,                                       ! Surface Rendering Name
  {bfcaef3c-a8a9-4584-9ff7-6483657d6e3a}, ! Layer 1
  {1b443d3e-f8ce-4e22-823e-70971811057d}; ! Layer 2

OS:Material,
  {bfcaef3c-a8a9-4584-9ff7-6483657d6e3a}, ! Handle
  MAT-CC05 8 HW CONCRETE,                 ! Name
  Rough,                                  ! Roughness
  0.20321,                                ! Thickness {m}
  1.311,                                  ! Conductivity {W/m-K}
  2240,                                   ! Density {kg/m3}
  836.8,                                  ! Specific Heat {J/kg-K}
  0.9,                                    ! Thermal Absorptance
  0.7,                                    ! Solar Absorptance
  0.7;                                    ! Visible Absorptance

OS:Material:NoMass,
  {1b443d3e-f8ce-4e22-823e-70971811057d}, ! Handle
  CP02 CARPET PAD,                        ! Name
  VeryRough,                              ! Roughness
  0.21648,                                ! Thermal Resistance {m2-K/W}
  0.9,                                    ! Thermal Absorptance
  0.7,                                    ! Solar Absorptance
  0.8;                                    ! Visible Absorptance

OS:ComponentCost:LineItem,
  {58b5e911-32c7-4a55-b2da-743976cb061a}, ! Handle
  90.1-2004 Nonres 3A Ext Slab Unheated - 8in Slab with Carpet, ! Name
  ,                                       ! Type
  Construction,                           ! Line Item Type
  90.1-2004 Nonres 3A Ext Slab Unheated - 8in Slab with Carpet, ! Item Name
  ,                                       ! Object End Use Key
  ,                                       ! Quantity {dimensionless}
  45.52,                                  ! Material Cost {$}
  CostPerArea;                            ! Material Cost Units

