
OS:Version,
  {5ed8503b-27d6-40df-bf2d-b78f96bd5b6a}, ! Handle
  0.9.3;                                  ! Version Identifier

OS:ComponentCost:LineItem,
  {a427187e-77fe-4551-8a1c-7207dced7d7f}, ! Handle
  189.1-2009 Res 4B Ext Wall Metal Building, ! Name
  ,                                       ! Type
  Construction,                           ! Line Item Type
  189.1-2009 Res 4B Ext Wall Metal Building, ! Item Name
  ,                                       ! Object End Use Key
  ,                                       ! Quantity {dimensionless}
  110.41,                                 ! Material Cost {$}
  CostPerArea;                            ! Material Cost Units

OS:Material,
  {49ce09f5-f349-4399-be6b-2e3f7a775706}, ! Handle
  Metal Siding,                           ! Name
  Smooth,                                 ! Roughness
  0.0015,                                 ! Thickness {m}
  44.96,                                  ! Conductivity {W/m-K}
  7688.86,                                ! Density {kg/m3}
  410,                                    ! Specific Heat {J/kg-K}
  0.9,                                    ! Thermal Absorptance
  0.2,                                    ! Solar Absorptance
  0.2;                                    ! Visible Absorptance

OS:Material,
  {c68caed6-9e8c-4fcc-92e6-2f2724f5aa0f}, ! Handle
  1/2IN Gypsum,                           ! Name
  Smooth,                                 ! Roughness
  0.01271,                                ! Thickness {m}
  0.16,                                   ! Conductivity {W/m-K}
  784.9,                                  ! Density {kg/m3}
  830,                                    ! Specific Heat {J/kg-K}
  0.9,                                    ! Thermal Absorptance
  0.92,                                   ! Solar Absorptance
  0.92;                                   ! Visible Absorptance

OS:Material,
  {bdc3944d-f277-4b9d-922f-8980d81fdf2a}, ! Handle
  Wall Insulation [38],                   ! Name
  MediumRough,                            ! Roughness
  0.139618,                               ! Thickness {m}
  0.045,                                  ! Conductivity {W/m-K}
  265,                                    ! Density {kg/m3}
  836.8,                                  ! Specific Heat {J/kg-K}
  0.9,                                    ! Thermal Absorptance
  0.7,                                    ! Solar Absorptance
  0.7;                                    ! Visible Absorptance

OS:Construction,
  {bf86a80e-63f7-47fd-88bc-d0f569a619d8}, ! Handle
  189.1-2009 Res 4B Ext Wall Metal Building, ! Name
  ,                                       ! Surface Rendering Name
  {49ce09f5-f349-4399-be6b-2e3f7a775706}, ! Layer 1
  {bdc3944d-f277-4b9d-922f-8980d81fdf2a}, ! Layer 2
  {c68caed6-9e8c-4fcc-92e6-2f2724f5aa0f}; ! Layer 3

