
OS:Version,
  {1677ef2a-7485-4415-9904-b2de028b63ec}, ! Handle
  0.9.3;                                  ! Version Identifier

OS:Material,
  {22331e91-f5c1-4e71-a0a2-3fc884f43ad6}, ! Handle
  Metal Roofing,                          ! Name
  MediumSmooth,                           ! Roughness
  0.001524,                               ! Thickness {m}
  45.006,                                 ! Conductivity {W/m-K}
  7680,                                   ! Density {kg/m3}
  418.4,                                  ! Specific Heat {J/kg-K}
  0.9,                                    ! Thermal Absorptance
  0.7,                                    ! Solar Absorptance
  0.3;                                    ! Visible Absorptance

OS:Material,
  {84f4fe2a-f1a9-4ed1-936c-e74b517b8081}, ! Handle
  Roof Insulation [1],                    ! Name
  MediumRough,                            ! Roughness
  0.123533,                               ! Thickness {m}
  0.049,                                  ! Conductivity {W/m-K}
  265,                                    ! Density {kg/m3}
  836.8,                                  ! Specific Heat {J/kg-K}
  0.9,                                    ! Thermal Absorptance
  0.7,                                    ! Solar Absorptance
  0.7;                                    ! Visible Absorptance

OS:Construction,
  {64e5d38f-8eac-49d0-805a-9dd7a7ebbdca}, ! Handle
  90.1-1999 Res B12 Roof Metal Building,  ! Name
  ,                                       ! Surface Rendering Name
  {22331e91-f5c1-4e71-a0a2-3fc884f43ad6}, ! Layer 1
  {84f4fe2a-f1a9-4ed1-936c-e74b517b8081}; ! Layer 2

OS:ComponentCost:LineItem,
  {9ee3ba85-bec2-4efc-8cd7-aac768e341a7}, ! Handle
  90.1-1999 Res B12 Roof Metal Building,  ! Name
  ,                                       ! Type
  Construction,                           ! Line Item Type
  90.1-1999 Res B12 Roof Metal Building,  ! Item Name
  ,                                       ! Object End Use Key
  ,                                       ! Quantity {dimensionless}
  38.206,                                 ! Material Cost {$}
  CostPerArea;                            ! Material Cost Units

