
OS:Version,
  {a4664cba-9faf-481f-99e3-aa485ac505e7}, ! Handle
  0.9.3;                                  ! Version Identifier

OS:Construction,
  {00d59d62-cc67-46dc-9cf1-6d25eed058a0}, ! Handle
  189.1-2009 Res 4B Ext Slab Unheated - 4in Slab without Carpet, ! Name
  ,                                       ! Surface Rendering Name
  {787bf72c-5cff-43d5-a2e3-0be6037cd0e7}; ! Layer 1

OS:Material,
  {787bf72c-5cff-43d5-a2e3-0be6037cd0e7}, ! Handle
  MAT-CC05 4 HW CONCRETE,                 ! Name
  Rough,                                  ! Roughness
  0.1016,                                 ! Thickness {m}
  1.311,                                  ! Conductivity {W/m-K}
  2240,                                   ! Density {kg/m3}
  836.8,                                  ! Specific Heat {J/kg-K}
  0.9,                                    ! Thermal Absorptance
  0.7,                                    ! Solar Absorptance
  0.7;                                    ! Visible Absorptance

OS:ComponentCost:LineItem,
  {6991114b-08f6-4a9a-8a10-2cab85e812c3}, ! Handle
  189.1-2009 Res 4B Ext Slab Unheated - 4in Slab without Carpet, ! Name
  ,                                       ! Type
  Construction,                           ! Line Item Type
  189.1-2009 Res 4B Ext Slab Unheated - 4in Slab without Carpet, ! Item Name
  ,                                       ! Object End Use Key
  ,                                       ! Quantity {dimensionless}
  45.52,                                  ! Material Cost {$}
  CostPerArea;                            ! Material Cost Units

