
OS:Version,
  {4943ace8-3470-4375-bc02-8efa519271cf}, ! Handle
  0.9.3;                                  ! Version Identifier

OS:Material,
  {b13eb15b-8641-44e4-8ec4-db86eadfe740}, ! Handle
  Metal Decking,                          ! Name
  MediumSmooth,                           ! Roughness
  0.001524,                               ! Thickness {m}
  45.006,                                 ! Conductivity {W/m-K}
  7680,                                   ! Density {kg/m3}
  418.4,                                  ! Specific Heat {J/kg-K}
  0.9,                                    ! Thermal Absorptance
  0.7,                                    ! Solar Absorptance
  0.3;                                    ! Visible Absorptance

OS:Material,
  {53eba1a0-9df1-4483-a10f-b1c5ea3d0ce4}, ! Handle
  Roof Insulation,                        ! Name
  MediumRough,                            ! Roughness
  0.124958,                               ! Thickness {m}
  0.049,                                  ! Conductivity {W/m-K}
  265,                                    ! Density {kg/m3}
  836.8,                                  ! Specific Heat {J/kg-K}
  0.9,                                    ! Thermal Absorptance
  0.7,                                    ! Solar Absorptance
  0.7;                                    ! Visible Absorptance

OS:Construction,
  {82234d26-6fb0-43d1-ba44-830fb1d51d63}, ! Handle
  90.1-2001 Nonres B13 Roof IEAD,         ! Name
  ,                                       ! Surface Rendering Name
  {e8dd2a4b-3ff2-4472-90ae-ccea0ef34210}, ! Layer 1
  {53eba1a0-9df1-4483-a10f-b1c5ea3d0ce4}, ! Layer 2
  {b13eb15b-8641-44e4-8ec4-db86eadfe740}; ! Layer 3

OS:Material,
  {e8dd2a4b-3ff2-4472-90ae-ccea0ef34210}, ! Handle
  Roof Membrane,                          ! Name
  VeryRough,                              ! Roughness
  0.0095,                                 ! Thickness {m}
  0.16,                                   ! Conductivity {W/m-K}
  1121.29,                                ! Density {kg/m3}
  1460,                                   ! Specific Heat {J/kg-K}
  0.9,                                    ! Thermal Absorptance
  0.7,                                    ! Solar Absorptance
  0.7;                                    ! Visible Absorptance

OS:ComponentCost:LineItem,
  {68158c31-f2a5-461d-b05a-34f997ad80dd}, ! Handle
  90.1-2001 Nonres B13 Roof IEAD,         ! Name
  ,                                       ! Type
  Construction,                           ! Line Item Type
  90.1-2001 Nonres B13 Roof IEAD,         ! Item Name
  ,                                       ! Object End Use Key
  ,                                       ! Quantity {dimensionless}
  49.208,                                 ! Material Cost {$}
  CostPerArea;                            ! Material Cost Units

