
OS:Version,
  {853d3cb5-b57e-424b-b79c-0b8f971d779e}, ! Handle
  0.9.3;                                  ! Version Identifier

OS:Construction,
  {534905ce-4cef-43e6-9237-211082c95e2b}, ! Handle
  90.1-2001 Res B21 Ext Slab Unheated - 4in Slab without Carpet, ! Name
  ,                                       ! Surface Rendering Name
  {4ff630c3-1f2b-48e7-8119-bb02313f7454}; ! Layer 1

OS:Material,
  {4ff630c3-1f2b-48e7-8119-bb02313f7454}, ! Handle
  MAT-CC05 4 HW CONCRETE,                 ! Name
  Rough,                                  ! Roughness
  0.1016,                                 ! Thickness {m}
  1.311,                                  ! Conductivity {W/m-K}
  2240,                                   ! Density {kg/m3}
  836.8,                                  ! Specific Heat {J/kg-K}
  0.9,                                    ! Thermal Absorptance
  0.7,                                    ! Solar Absorptance
  0.7;                                    ! Visible Absorptance

OS:ComponentCost:LineItem,
  {9a130d9f-e76f-4a0d-8779-43d1343ce8cc}, ! Handle
  90.1-2001 Res B21 Ext Slab Unheated - 4in Slab without Carpet, ! Name
  ,                                       ! Type
  Construction,                           ! Line Item Type
  90.1-2001 Res B21 Ext Slab Unheated - 4in Slab without Carpet, ! Item Name
  ,                                       ! Object End Use Key
  ,                                       ! Quantity {dimensionless}
  45.52,                                  ! Material Cost {$}
  CostPerArea;                            ! Material Cost Units

