
OS:Version,
  {ac6268e1-186b-47cd-850d-b1beb19ee7c5}, ! Handle
  0.9.3;                                  ! Version Identifier

OS:Construction,
  {91be8467-d607-4d42-892e-172e83a8c6b6}, ! Handle
  90.1-2001 Res B21 Ext Slab Unheated - 4in Slab without Carpet, ! Name
  ,                                       ! Surface Rendering Name
  {601f2e52-a005-4622-8449-3d2f08301508}; ! Layer 1

OS:Material,
  {601f2e52-a005-4622-8449-3d2f08301508}, ! Handle
  MAT-CC05 4 HW CONCRETE,                 ! Name
  Rough,                                  ! Roughness
  0.1016,                                 ! Thickness {m}
  1.311,                                  ! Conductivity {W/m-K}
  2240,                                   ! Density {kg/m3}
  836.8,                                  ! Specific Heat {J/kg-K}
  0.9,                                    ! Thermal Absorptance
  0.7,                                    ! Solar Absorptance
  0.7;                                    ! Visible Absorptance

OS:ComponentCost:LineItem,
  {3faffa9c-c25d-4e74-9586-28c882887a62}, ! Handle
  90.1-2001 Res B21 Ext Slab Unheated - 4in Slab without Carpet, ! Name
  ,                                       ! Type
  Construction,                           ! Line Item Type
  90.1-2001 Res B21 Ext Slab Unheated - 4in Slab without Carpet, ! Item Name
  ,                                       ! Object End Use Key
  ,                                       ! Quantity {dimensionless}
  45.52,                                  ! Material Cost {$}
  CostPerArea;                            ! Material Cost Units

OS:ComponentData,
  {817538a5-f0d2-4083-9e60-3203bb5bf62e}, ! Handle
  Component Data 1,                       ! Name
  {36ae3b79-eb1e-4286-9e0d-f107622dfc21}, ! UUID
  {86969c35-59b1-4a21-af61-30563d586248}, ! Version UUID
  1363981583,                             ! Creation Timestamp
  1363981583,                             ! Version Timestamp
  {91be8467-d607-4d42-892e-172e83a8c6b6}, ! Name of Object 1
  {601f2e52-a005-4622-8449-3d2f08301508}, ! Name of Object 2
  {3faffa9c-c25d-4e74-9586-28c882887a62}; ! Name of Object 3

