
OS:Version,
  {5a32063c-002f-4563-9073-4c73499f4c8c}, ! Handle
  0.9.3;                                  ! Version Identifier

OS:WindowMaterial:Glazing,
  {bd1e0fe5-05a2-4ddb-9695-5765a9741153}, ! Handle
  Theoretical Glass [328],                ! Name
  SpectralAverage,                        ! Optical Data Type
  ,                                       ! Window Glass Spectral Data Set Name
  0.003,                                  ! Thickness {m}
  0.433433,                               ! Solar Transmittance at Normal Incidence
  0.516567,                               ! Front Side Solar Reflectance at Normal Incidence
  0.516567,                               ! Back Side Solar Reflectance at Normal Incidence
  0.400004,                               ! Visible Transmittance at Normal Incidence
  0.549996,                               ! Front Side Visible Reflectance at Normal Incidence
  0.549996,                               ! Back Side Visible Reflectance at Normal Incidence
  0,                                      ! Infrared Transmittance at Normal Incidence
  0.9,                                    ! Front Side Infrared Hemispherical Emissivity
  0.9,                                    ! Back Side Infrared Hemispherical Emissivity
  0.0150049;                              ! Conductivity {W/m-K}

OS:ComponentCost:LineItem,
  {63241797-ea81-4b31-85c8-68b105ed16fa}, ! Handle
  90.1 Windows Window Fixed 2324 Brk-ClrMpr-Std-ClrPye, ! Name
  ,                                       ! Type
  Construction,                           ! Line Item Type
  90.1 Windows Window Fixed 2324 Brk-ClrMpr-Std-ClrPye, ! Item Name
  ,                                       ! Object End Use Key
  ,                                       ! Quantity {dimensionless}
  0,                                      ! Material Cost {$}
  CostPerArea;                            ! Material Cost Units

OS:Construction,
  {a124cb8e-f595-46b4-8b39-8493ce2bf3ea}, ! Handle
  90.1 Windows Window Fixed 2324 Brk-ClrMpr-Std-ClrPye, ! Name
  ,                                       ! Surface Rendering Name
  {bd1e0fe5-05a2-4ddb-9695-5765a9741153}; ! Layer 1

