
OS:Version,
  {9dc8491a-cbb4-40c0-85af-ced6432caeac}, ! Handle
  0.9.3;                                  ! Version Identifier

OS:Construction,
  {e53d67f3-f36f-4434-a65f-8b484133828e}, ! Handle
  90.1 Windows Window Fixed 2324 Brk-ClrMpr-Std-ClrPye, ! Name
  ,                                       ! Surface Rendering Name
  {b1665c83-a4f9-4267-9b8b-1e46203f5fa9}; ! Layer 1

OS:WindowMaterial:Glazing,
  {b1665c83-a4f9-4267-9b8b-1e46203f5fa9}, ! Handle
  Theoretical Glass [328],                ! Name
  SpectralAverage,                        ! Optical Data Type
  ,                                       ! Window Glass Spectral Data Set Name
  0.003,                                  ! Thickness {m}
  0.433433,                               ! Solar Transmittance at Normal Incidence
  0.516567,                               ! Front Side Solar Reflectance at Normal Incidence
  0.516567,                               ! Back Side Solar Reflectance at Normal Incidence
  0.400004,                               ! Visible Transmittance at Normal Incidence
  0.549996,                               ! Front Side Visible Reflectance at Normal Incidence
  0.549996,                               ! Back Side Visible Reflectance at Normal Incidence
  0,                                      ! Infrared Transmittance at Normal Incidence
  0.9,                                    ! Front Side Infrared Hemispherical Emissivity
  0.9,                                    ! Back Side Infrared Hemispherical Emissivity
  0.0150049;                              ! Conductivity {W/m-K}

OS:ComponentCost:LineItem,
  {501c6d7d-5367-48f4-b00b-1381711fd5b7}, ! Handle
  90.1 Windows Window Fixed 2324 Brk-ClrMpr-Std-ClrPye, ! Name
  ,                                       ! Type
  Construction,                           ! Line Item Type
  90.1 Windows Window Fixed 2324 Brk-ClrMpr-Std-ClrPye, ! Item Name
  ,                                       ! Object End Use Key
  ,                                       ! Quantity {dimensionless}
  0,                                      ! Material Cost {$}
  CostPerArea;                            ! Material Cost Units

OS:ComponentData,
  {ef7debd3-34e1-4c89-abff-2d16b532ed77}, ! Handle
  Component Data 1,                       ! Name
  {811f4cd6-c887-4caa-860a-78bee2c4988e}, ! UUID
  {da606bf2-7d55-4af6-938f-e48909da87cf}, ! Version UUID
  1363981007,                             ! Creation Timestamp
  1363981007,                             ! Version Timestamp
  {e53d67f3-f36f-4434-a65f-8b484133828e}, ! Name of Object 1
  {b1665c83-a4f9-4267-9b8b-1e46203f5fa9}, ! Name of Object 2
  {501c6d7d-5367-48f4-b00b-1381711fd5b7}; ! Name of Object 3

