
OS:Version,
  {fecc94da-cf26-4017-8302-812d9f275256}, ! Handle
  0.9.3;                                  ! Version Identifier

OS:Material,
  {be03592b-3c5b-48f8-8611-3de0fc431888}, ! Handle
  Roof Insulation [9],                    ! Name
  MediumRough,                            ! Roughness
  0.209009,                               ! Thickness {m}
  0.049,                                  ! Conductivity {W/m-K}
  265,                                    ! Density {kg/m3}
  836.8,                                  ! Specific Heat {J/kg-K}
  0.9,                                    ! Thermal Absorptance
  0.7,                                    ! Solar Absorptance
  0.7;                                    ! Visible Absorptance

OS:Material,
  {ea877bf8-7a14-4df4-9b62-9f3d7d1ee392}, ! Handle
  Roof Membrane,                          ! Name
  VeryRough,                              ! Roughness
  0.0095,                                 ! Thickness {m}
  0.16,                                   ! Conductivity {W/m-K}
  1121.29,                                ! Density {kg/m3}
  1460,                                   ! Specific Heat {J/kg-K}
  0.9,                                    ! Thermal Absorptance
  0.7,                                    ! Solar Absorptance
  0.7;                                    ! Visible Absorptance

OS:Material,
  {01690597-4fa7-4598-ac27-98287921b30e}, ! Handle
  Metal Decking,                          ! Name
  MediumSmooth,                           ! Roughness
  0.001524,                               ! Thickness {m}
  45.006,                                 ! Conductivity {W/m-K}
  7680,                                   ! Density {kg/m3}
  418.4,                                  ! Specific Heat {J/kg-K}
  0.9,                                    ! Thermal Absorptance
  0.7,                                    ! Solar Absorptance
  0.3;                                    ! Visible Absorptance

OS:ComponentCost:LineItem,
  {cc433ed6-ac1b-4900-8dd7-f573293fc5df}, ! Handle
  90.1-2001 Nonres B26 Roof IEAD,         ! Name
  ,                                       ! Type
  Construction,                           ! Line Item Type
  90.1-2001 Nonres B26 Roof IEAD,         ! Item Name
  ,                                       ! Object End Use Key
  ,                                       ! Quantity {dimensionless}
  56.539,                                 ! Material Cost {$}
  CostPerArea;                            ! Material Cost Units

OS:Construction,
  {0aae8cfa-156b-4eff-99ae-673f85929e61}, ! Handle
  90.1-2001 Nonres B26 Roof IEAD,         ! Name
  ,                                       ! Surface Rendering Name
  {ea877bf8-7a14-4df4-9b62-9f3d7d1ee392}, ! Layer 1
  {be03592b-3c5b-48f8-8611-3de0fc431888}, ! Layer 2
  {01690597-4fa7-4598-ac27-98287921b30e}; ! Layer 3

