
OS:Version,
  {9be5e072-70e3-49ae-b73e-e65c6178223c}, ! Handle
  0.9.3;                                  ! Version Identifier

OS:Construction,
  {162bf49d-68bc-4632-afe4-1b4702a2f870}, ! Handle
  90.1 Windows Window Fixed 2541 Vnl-Clr-Std-ClrSue, ! Name
  ,                                       ! Surface Rendering Name
  {45fc6e86-9794-423b-8c51-e9953592b673}; ! Layer 1

OS:WindowMaterial:Glazing,
  {45fc6e86-9794-423b-8c51-e9953592b673}, ! Handle
  Theoretical Glass [352],                ! Name
  SpectralAverage,                        ! Optical Data Type
  ,                                       ! Window Glass Spectral Data Set Name
  0.003,                                  ! Thickness {m}
  0.405671,                               ! Solar Transmittance at Normal Incidence
  0.544329,                               ! Front Side Solar Reflectance at Normal Incidence
  0.544329,                               ! Back Side Solar Reflectance at Normal Incidence
  0.599285,                               ! Visible Transmittance at Normal Incidence
  0.350715,                               ! Front Side Visible Reflectance at Normal Incidence
  0.350715,                               ! Back Side Visible Reflectance at Normal Incidence
  0,                                      ! Infrared Transmittance at Normal Incidence
  0.9,                                    ! Front Side Infrared Hemispherical Emissivity
  0.9,                                    ! Back Side Infrared Hemispherical Emissivity
  0.00919029;                             ! Conductivity {W/m-K}

OS:ComponentCost:LineItem,
  {8f6370de-b420-460a-a5e6-3c92db6e4faa}, ! Handle
  90.1 Windows Window Fixed 2541 Vnl-Clr-Std-ClrSue, ! Name
  ,                                       ! Type
  Construction,                           ! Line Item Type
  90.1 Windows Window Fixed 2541 Vnl-Clr-Std-ClrSue, ! Item Name
  ,                                       ! Object End Use Key
  ,                                       ! Quantity {dimensionless}
  0,                                      ! Material Cost {$}
  CostPerArea;                            ! Material Cost Units

OS:ComponentData,
  {01522f1d-88e8-466a-8304-3a5695af838d}, ! Handle
  Component Data 1,                       ! Name
  {e0466ba8-fea2-4136-9c49-b97537d3f00e}, ! UUID
  {d9414eac-e2c4-4a65-a8a4-0894d54b0550}, ! Version UUID
  1363981010,                             ! Creation Timestamp
  1363981010,                             ! Version Timestamp
  {162bf49d-68bc-4632-afe4-1b4702a2f870}, ! Name of Object 1
  {45fc6e86-9794-423b-8c51-e9953592b673}, ! Name of Object 2
  {8f6370de-b420-460a-a5e6-3c92db6e4faa}; ! Name of Object 3

