
OS:Version,
  {35dfa175-507c-43d2-b266-beb5cd1f9b59}, ! Handle
  0.9.3;                                  ! Version Identifier

OS:WindowMaterial:Glazing,
  {b8fdeb7c-e5d9-41c7-904c-f5fc6eaeeb6f}, ! Handle
  Theoretical Glass [352],                ! Name
  SpectralAverage,                        ! Optical Data Type
  ,                                       ! Window Glass Spectral Data Set Name
  0.003,                                  ! Thickness {m}
  0.405671,                               ! Solar Transmittance at Normal Incidence
  0.544329,                               ! Front Side Solar Reflectance at Normal Incidence
  0.544329,                               ! Back Side Solar Reflectance at Normal Incidence
  0.599285,                               ! Visible Transmittance at Normal Incidence
  0.350715,                               ! Front Side Visible Reflectance at Normal Incidence
  0.350715,                               ! Back Side Visible Reflectance at Normal Incidence
  0,                                      ! Infrared Transmittance at Normal Incidence
  0.9,                                    ! Front Side Infrared Hemispherical Emissivity
  0.9,                                    ! Back Side Infrared Hemispherical Emissivity
  0.00919029;                             ! Conductivity {W/m-K}

OS:Construction,
  {b22b8f71-6e75-4293-ba7f-bb2895d78a38}, ! Handle
  90.1 Windows Window Fixed 2541 Vnl-Clr-Std-ClrSue, ! Name
  ,                                       ! Surface Rendering Name
  {b8fdeb7c-e5d9-41c7-904c-f5fc6eaeeb6f}; ! Layer 1

OS:ComponentCost:LineItem,
  {cc22cef7-e42f-4786-831b-6892cd40df94}, ! Handle
  90.1 Windows Window Fixed 2541 Vnl-Clr-Std-ClrSue, ! Name
  ,                                       ! Type
  Construction,                           ! Line Item Type
  90.1 Windows Window Fixed 2541 Vnl-Clr-Std-ClrSue, ! Item Name
  ,                                       ! Object End Use Key
  ,                                       ! Quantity {dimensionless}
  0,                                      ! Material Cost {$}
  CostPerArea;                            ! Material Cost Units

