
OS:Version,
  {30c563ed-b1aa-4413-b014-4717901291b1}, ! Handle
  0.9.3;                                  ! Version Identifier

OS:ComponentCost:LineItem,
  {27cd2878-4d02-4a76-b997-b07582f798fb}, ! Handle
  90.1-2004 Res 3C Skylight without Curb, ! Name
  ,                                       ! Type
  Construction,                           ! Line Item Type
  90.1-2004 Res 3C Skylight without Curb, ! Item Name
  ,                                       ! Object End Use Key
  ,                                       ! Quantity {dimensionless}
  486.627,                                ! Material Cost {$}
  CostPerArea;                            ! Material Cost Units

OS:Construction,
  {0a3bae5c-39eb-4e4e-a043-157df3cb8e60}, ! Handle
  90.1-2004 Res 3C Skylight without Curb, ! Name
  ,                                       ! Surface Rendering Name
  {3327660c-c59c-478c-874a-52b4912831e4}; ! Layer 1

OS:WindowMaterial:Glazing,
  {3327660c-c59c-478c-874a-52b4912831e4}, ! Handle
  Theoretical Glass [143],                ! Name
  SpectralAverage,                        ! Optical Data Type
  ,                                       ! Window Glass Spectral Data Set Name
  0.003,                                  ! Thickness {m}
  0.375972,                               ! Solar Transmittance at Normal Incidence
  0.574028,                               ! Front Side Solar Reflectance at Normal Incidence
  0.574028,                               ! Back Side Solar Reflectance at Normal Incidence
  0.494971,                               ! Visible Transmittance at Normal Incidence
  0.455029,                               ! Front Side Visible Reflectance at Normal Incidence
  0.455029,                               ! Back Side Visible Reflectance at Normal Incidence
  0,                                      ! Infrared Transmittance at Normal Incidence
  0.999,                                  ! Front Side Infrared Hemispherical Emissivity
  0.999,                                  ! Back Side Infrared Hemispherical Emissivity
  299.383;                                ! Conductivity {W/m-K}

