
OS:Version,
  {3171d449-5d74-4c44-a898-95e0e35db378}, ! Handle
  0.9.3;                                  ! Version Identifier

OS:Construction,
  {7bc3e2ed-4c13-4bb6-9ccc-84fcc49a74ce}, ! Handle
  90.1-2004 Res 3C Skylight without Curb, ! Name
  ,                                       ! Surface Rendering Name
  {0c0b4a90-b6f8-4f50-a83f-f56f3d02f646}; ! Layer 1

OS:WindowMaterial:Glazing,
  {0c0b4a90-b6f8-4f50-a83f-f56f3d02f646}, ! Handle
  Theoretical Glass [143],                ! Name
  SpectralAverage,                        ! Optical Data Type
  ,                                       ! Window Glass Spectral Data Set Name
  0.003,                                  ! Thickness {m}
  0.375972,                               ! Solar Transmittance at Normal Incidence
  0.574028,                               ! Front Side Solar Reflectance at Normal Incidence
  0.574028,                               ! Back Side Solar Reflectance at Normal Incidence
  0.494971,                               ! Visible Transmittance at Normal Incidence
  0.455029,                               ! Front Side Visible Reflectance at Normal Incidence
  0.455029,                               ! Back Side Visible Reflectance at Normal Incidence
  0,                                      ! Infrared Transmittance at Normal Incidence
  0.999,                                  ! Front Side Infrared Hemispherical Emissivity
  0.999,                                  ! Back Side Infrared Hemispherical Emissivity
  299.383;                                ! Conductivity {W/m-K}

OS:ComponentCost:LineItem,
  {64ebaffe-f256-4aa6-800b-404187519584}, ! Handle
  90.1-2004 Res 3C Skylight without Curb, ! Name
  ,                                       ! Type
  Construction,                           ! Line Item Type
  90.1-2004 Res 3C Skylight without Curb, ! Item Name
  ,                                       ! Object End Use Key
  ,                                       ! Quantity {dimensionless}
  486.627,                                ! Material Cost {$}
  CostPerArea;                            ! Material Cost Units

OS:ComponentData,
  {f6f3ffc8-1843-465e-909f-3986a510d217}, ! Handle
  Component Data 1,                       ! Name
  {661ce81e-dfc7-4aa8-ab36-2aca171ee41c}, ! UUID
  {ff6d3219-075c-47ca-9c28-21370f215049}, ! Version UUID
  1363981735,                             ! Creation Timestamp
  1363981735,                             ! Version Timestamp
  {7bc3e2ed-4c13-4bb6-9ccc-84fcc49a74ce}, ! Name of Object 1
  {0c0b4a90-b6f8-4f50-a83f-f56f3d02f646}, ! Name of Object 2
  {64ebaffe-f256-4aa6-800b-404187519584}; ! Name of Object 3

