
OS:Version,
  {aa35fad9-5a51-40e5-b78f-22d96c226627}, ! Handle
  0.9.3;                                  ! Version Identifier

OS:Construction,
  {18ef86e2-3a76-406c-8b5c-087b6ef332a2}, ! Handle
  189.1-2009 Res 7A Window Nonmetal framing, ! Name
  ,                                       ! Surface Rendering Name
  {f259cc8d-ad26-4afd-8ad1-84321972428b}; ! Layer 1

OS:WindowMaterial:Glazing,
  {f259cc8d-ad26-4afd-8ad1-84321972428b}, ! Handle
  Theoretical Glass [218],                ! Name
  SpectralAverage,                        ! Optical Data Type
  ,                                       ! Window Glass Spectral Data Set Name
  0.003,                                  ! Thickness {m}
  0.428104,                               ! Solar Transmittance at Normal Incidence
  0.521896,                               ! Front Side Solar Reflectance at Normal Incidence
  0.521896,                               ! Back Side Solar Reflectance at Normal Incidence
  0.450308,                               ! Visible Transmittance at Normal Incidence
  0.499692,                               ! Front Side Visible Reflectance at Normal Incidence
  0.499692,                               ! Back Side Visible Reflectance at Normal Incidence
  0,                                      ! Infrared Transmittance at Normal Incidence
  0.9,                                    ! Front Side Infrared Hemispherical Emissivity
  0.9,                                    ! Back Side Infrared Hemispherical Emissivity
  0.00560984;                             ! Conductivity {W/m-K}

OS:ComponentCost:LineItem,
  {b7d39378-f2f8-4c78-b3d2-e002a94a8595}, ! Handle
  189.1-2009 Res 7A Window Nonmetal framing, ! Name
  ,                                       ! Type
  Construction,                           ! Line Item Type
  189.1-2009 Res 7A Window Nonmetal framing, ! Item Name
  ,                                       ! Object End Use Key
  ,                                       ! Quantity {dimensionless}
  508.362,                                ! Material Cost {$}
  CostPerArea;                            ! Material Cost Units

