
OS:Version,
  {b84e206c-a0c0-4bed-b3db-0bcd72c88108}, ! Handle
  0.9.3;                                  ! Version Identifier

OS:Construction,
  {87592d65-48d4-4292-b006-ebeb0f83d0ae}, ! Handle
  189.1-2009 Res 7A Window Nonmetal framing, ! Name
  ,                                       ! Surface Rendering Name
  {9682dc03-59f5-4186-9c65-ec800705219b}; ! Layer 1

OS:WindowMaterial:Glazing,
  {9682dc03-59f5-4186-9c65-ec800705219b}, ! Handle
  Theoretical Glass [218],                ! Name
  SpectralAverage,                        ! Optical Data Type
  ,                                       ! Window Glass Spectral Data Set Name
  0.003,                                  ! Thickness {m}
  0.428104,                               ! Solar Transmittance at Normal Incidence
  0.521896,                               ! Front Side Solar Reflectance at Normal Incidence
  0.521896,                               ! Back Side Solar Reflectance at Normal Incidence
  0.450308,                               ! Visible Transmittance at Normal Incidence
  0.499692,                               ! Front Side Visible Reflectance at Normal Incidence
  0.499692,                               ! Back Side Visible Reflectance at Normal Incidence
  0,                                      ! Infrared Transmittance at Normal Incidence
  0.9,                                    ! Front Side Infrared Hemispherical Emissivity
  0.9,                                    ! Back Side Infrared Hemispherical Emissivity
  0.00560984;                             ! Conductivity {W/m-K}

OS:ComponentCost:LineItem,
  {da9aea8c-f606-4479-b477-7942a5352bfc}, ! Handle
  189.1-2009 Res 7A Window Nonmetal framing, ! Name
  ,                                       ! Type
  Construction,                           ! Line Item Type
  189.1-2009 Res 7A Window Nonmetal framing, ! Item Name
  ,                                       ! Object End Use Key
  ,                                       ! Quantity {dimensionless}
  508.362,                                ! Material Cost {$}
  CostPerArea;                            ! Material Cost Units

OS:ComponentData,
  {dcd6759d-c8b3-40c8-a623-7f7feada05e9}, ! Handle
  Component Data 1,                       ! Name
  {7ec735df-1d52-41bb-9e34-f54801e9576f}, ! UUID
  {c2c0e714-f5f3-4be7-b5a0-386f813de844}, ! Version UUID
  1363980986,                             ! Creation Timestamp
  1363980986,                             ! Version Timestamp
  {87592d65-48d4-4292-b006-ebeb0f83d0ae}, ! Name of Object 1
  {9682dc03-59f5-4186-9c65-ec800705219b}, ! Name of Object 2
  {da9aea8c-f606-4479-b477-7942a5352bfc}; ! Name of Object 3

