
OS:Version,
  {0dc2cb2c-5165-42c8-9f3a-1f43388089e8}, ! Handle
  0.9.3;                                  ! Version Identifier

OS:ComponentCost:LineItem,
  {fa0d7454-0f4f-4af1-b3ab-998aeaf7d049}, ! Handle
  90.1-1999 Nonres B3 Ext Wall Mass,      ! Name
  ,                                       ! Type
  Construction,                           ! Line Item Type
  90.1-1999 Nonres B3 Ext Wall Mass,      ! Item Name
  ,                                       ! Object End Use Key
  ,                                       ! Quantity {dimensionless}
  41.397,                                 ! Material Cost {$}
  CostPerArea;                            ! Material Cost Units

OS:Construction,
  {8d2260ab-c558-47a6-8f58-07086ab3cf8a}, ! Handle
  90.1-1999 Nonres B3 Ext Wall Mass,      ! Name
  ,                                       ! Surface Rendering Name
  {da5bd60d-ef3e-47fe-8533-eb9d179daf9e}, ! Layer 1
  {2c874dae-29b8-4dc8-a91e-90b3c7fad52e}, ! Layer 2
  {a9fa6fcb-09e2-49a6-a993-18ec50a478c2}; ! Layer 3

OS:Material,
  {da5bd60d-ef3e-47fe-8533-eb9d179daf9e}, ! Handle
  1IN Stucco,                             ! Name
  Smooth,                                 ! Roughness
  0.0253,                                 ! Thickness {m}
  0.6918,                                 ! Conductivity {W/m-K}
  1858,                                   ! Density {kg/m3}
  837,                                    ! Specific Heat {J/kg-K}
  0.9,                                    ! Thermal Absorptance
  0.92,                                   ! Solar Absorptance
  0.92;                                   ! Visible Absorptance

OS:Material,
  {2c874dae-29b8-4dc8-a91e-90b3c7fad52e}, ! Handle
  8IN Concrete HW,                        ! Name
  MediumRough,                            ! Roughness
  0.2033,                                 ! Thickness {m}
  1.7296,                                 ! Conductivity {W/m-K}
  2243,                                   ! Density {kg/m3}
  837,                                    ! Specific Heat {J/kg-K}
  0.9,                                    ! Thermal Absorptance
  0.65,                                   ! Solar Absorptance
  0.65;                                   ! Visible Absorptance

OS:Material,
  {a9fa6fcb-09e2-49a6-a993-18ec50a478c2}, ! Handle
  1/2IN Gypsum,                           ! Name
  Smooth,                                 ! Roughness
  0.01271,                                ! Thickness {m}
  0.16,                                   ! Conductivity {W/m-K}
  784.9,                                  ! Density {kg/m3}
  830,                                    ! Specific Heat {J/kg-K}
  0.9,                                    ! Thermal Absorptance
  0.92,                                   ! Solar Absorptance
  0.92;                                   ! Visible Absorptance

