
OS:Version,
  {0e01e063-0dfe-4aa4-97d1-4c0a7cfa52bc}, ! Handle
  0.9.3;                                  ! Version Identifier

OS:Construction,
  {cdfa15ab-66de-4694-8d52-34fcf15e4335}, ! Handle
  90.1-1999 Res B6 Ext Wall Mass,         ! Name
  ,                                       ! Surface Rendering Name
  {e9ae488c-868c-4c70-a406-ba86f1dc7928}, ! Layer 1
  {9ee4f03a-003f-427f-8fe2-5b20e0b6aab0}, ! Layer 2
  {2c6a21aa-63bd-4d98-b05c-93ee67e7893d}, ! Layer 3
  {d7dc9d28-c425-4691-ab1d-b5844e644d71}; ! Layer 4

OS:Material,
  {e9ae488c-868c-4c70-a406-ba86f1dc7928}, ! Handle
  1IN Stucco,                             ! Name
  Smooth,                                 ! Roughness
  0.0253,                                 ! Thickness {m}
  0.6918,                                 ! Conductivity {W/m-K}
  1858,                                   ! Density {kg/m3}
  837,                                    ! Specific Heat {J/kg-K}
  0.9,                                    ! Thermal Absorptance
  0.92,                                   ! Solar Absorptance
  0.92;                                   ! Visible Absorptance

OS:Material,
  {9ee4f03a-003f-427f-8fe2-5b20e0b6aab0}, ! Handle
  8IN Concrete HW,                        ! Name
  MediumRough,                            ! Roughness
  0.2033,                                 ! Thickness {m}
  1.7296,                                 ! Conductivity {W/m-K}
  2243,                                   ! Density {kg/m3}
  837,                                    ! Specific Heat {J/kg-K}
  0.9,                                    ! Thermal Absorptance
  0.65,                                   ! Solar Absorptance
  0.65;                                   ! Visible Absorptance

OS:Material,
  {2c6a21aa-63bd-4d98-b05c-93ee67e7893d}, ! Handle
  Wall Insulation [4],                    ! Name
  MediumRough,                            ! Roughness
  0.0338606,                              ! Thickness {m}
  0.0432,                                 ! Conductivity {W/m-K}
  91,                                     ! Density {kg/m3}
  837,                                    ! Specific Heat {J/kg-K}
  0.9,                                    ! Thermal Absorptance
  0.5,                                    ! Solar Absorptance
  0.5;                                    ! Visible Absorptance

OS:Material,
  {d7dc9d28-c425-4691-ab1d-b5844e644d71}, ! Handle
  1/2IN Gypsum,                           ! Name
  Smooth,                                 ! Roughness
  0.01271,                                ! Thickness {m}
  0.16,                                   ! Conductivity {W/m-K}
  784.9,                                  ! Density {kg/m3}
  830,                                    ! Specific Heat {J/kg-K}
  0.9,                                    ! Thermal Absorptance
  0.92,                                   ! Solar Absorptance
  0.92;                                   ! Visible Absorptance

OS:ComponentCost:LineItem,
  {c3fa9de4-736b-4ade-9884-959478a8fefc}, ! Handle
  90.1-1999 Res B6 Ext Wall Mass,         ! Name
  ,                                       ! Type
  Construction,                           ! Line Item Type
  90.1-1999 Res B6 Ext Wall Mass,         ! Item Name
  ,                                       ! Object End Use Key
  ,                                       ! Quantity {dimensionless}
  58.897,                                 ! Material Cost {$}
  CostPerArea;                            ! Material Cost Units

OS:ComponentData,
  {837d3769-99fe-419f-aa67-b36d53217b21}, ! Handle
  Component Data 1,                       ! Name
  {6f8b9af4-f468-42a1-80a2-c27f4d239456}, ! UUID
  {c8b07228-a438-4592-ad07-ef741f3cde93}, ! Version UUID
  1363981186,                             ! Creation Timestamp
  1363981186,                             ! Version Timestamp
  {cdfa15ab-66de-4694-8d52-34fcf15e4335}, ! Name of Object 1
  {e9ae488c-868c-4c70-a406-ba86f1dc7928}, ! Name of Object 2
  {9ee4f03a-003f-427f-8fe2-5b20e0b6aab0}, ! Name of Object 3
  {2c6a21aa-63bd-4d98-b05c-93ee67e7893d}, ! Name of Object 4
  {d7dc9d28-c425-4691-ab1d-b5844e644d71}, ! Name of Object 5
  {c3fa9de4-736b-4ade-9884-959478a8fefc}; ! Name of Object 6

