
OS:Version,
  {57e6313b-8821-43d1-8590-60f9ec7f287c}, ! Handle
  0.9.3;                                  ! Version Identifier

OS:ComponentCost:LineItem,
  {fe7fd032-c39c-42f2-a0e0-d2df975186f2}, ! Handle
  90.1-1999 Nonres B22 Roof Attic and Other, ! Name
  ,                                       ! Type
  Construction,                           ! Line Item Type
  90.1-1999 Nonres B22 Roof Attic and Other, ! Item Name
  ,                                       ! Object End Use Key
  ,                                       ! Quantity {dimensionless}
  34.757,                                 ! Material Cost {$}
  CostPerArea;                            ! Material Cost Units

OS:Material,
  {6e105084-c662-4708-9eeb-876ed41a49a0}, ! Handle
  Roof Insulation [5],                    ! Name
  MediumRough,                            ! Roughness
  0.286906,                               ! Thickness {m}
  0.049,                                  ! Conductivity {W/m-K}
  265,                                    ! Density {kg/m3}
  836.8,                                  ! Specific Heat {J/kg-K}
  0.9,                                    ! Thermal Absorptance
  0.7,                                    ! Solar Absorptance
  0.7;                                    ! Visible Absorptance

OS:Material,
  {a568a7bb-36fc-43b2-9327-c55fa1c336e8}, ! Handle
  1IN Wood Decking,                       ! Name
  MediumSmooth,                           ! Roughness
  0.0254,                                 ! Thickness {m}
  0.1211,                                 ! Conductivity {W/m-K}
  593,                                    ! Density {kg/m3}
  2510,                                   ! Specific Heat {J/kg-K}
  0.9,                                    ! Thermal Absorptance
  0.78,                                   ! Solar Absorptance
  0.78;                                   ! Visible Absorptance

OS:Construction,
  {59ee8743-f435-4966-a0e5-5b4fe023ede5}, ! Handle
  90.1-1999 Nonres B22 Roof Attic and Other, ! Name
  ,                                       ! Surface Rendering Name
  {aac10c30-3547-41e1-8817-d65fd70eec21}, ! Layer 1
  {a568a7bb-36fc-43b2-9327-c55fa1c336e8}, ! Layer 2
  {6e105084-c662-4708-9eeb-876ed41a49a0}, ! Layer 3
  {b5956126-c94d-4d6a-a4ee-66900da70b7f}; ! Layer 4

OS:Material,
  {aac10c30-3547-41e1-8817-d65fd70eec21}, ! Handle
  Wood Shingles,                          ! Name
  VeryRough,                              ! Roughness
  0.0178,                                 ! Thickness {m}
  0.115,                                  ! Conductivity {W/m-K}
  513,                                    ! Density {kg/m3}
  1255,                                   ! Specific Heat {J/kg-K}
  0.9,                                    ! Thermal Absorptance
  0.78,                                   ! Solar Absorptance
  0.78;                                   ! Visible Absorptance

OS:Material,
  {b5956126-c94d-4d6a-a4ee-66900da70b7f}, ! Handle
  1/2IN Gypsum,                           ! Name
  Smooth,                                 ! Roughness
  0.01271,                                ! Thickness {m}
  0.16,                                   ! Conductivity {W/m-K}
  784.9,                                  ! Density {kg/m3}
  830,                                    ! Specific Heat {J/kg-K}
  0.9,                                    ! Thermal Absorptance
  0.92,                                   ! Solar Absorptance
  0.92;                                   ! Visible Absorptance

