
OS:Version,
  {ef03cb3e-27b0-4ed3-ab1d-b1d844c1dcfd}, ! Handle
  0.9.3;                                  ! Version Identifier

OS:Construction,
  {ee80bd1e-3c81-429d-b1c5-4258950d5ce6}, ! Handle
  90.1-1999 Nonres B22 Roof Attic and Other, ! Name
  ,                                       ! Surface Rendering Name
  {4e3d1776-30cd-4d68-a20b-784199edd956}, ! Layer 1
  {770222dd-2d03-4d0d-b7d2-fb06ed296cf1}, ! Layer 2
  {701f5544-45ef-4bf1-8f41-00d710a5309e}, ! Layer 3
  {5bdd04c0-89a7-441a-ab5c-2dbec5094eed}; ! Layer 4

OS:Material,
  {4e3d1776-30cd-4d68-a20b-784199edd956}, ! Handle
  Wood Shingles,                          ! Name
  VeryRough,                              ! Roughness
  0.0178,                                 ! Thickness {m}
  0.115,                                  ! Conductivity {W/m-K}
  513,                                    ! Density {kg/m3}
  1255,                                   ! Specific Heat {J/kg-K}
  0.9,                                    ! Thermal Absorptance
  0.78,                                   ! Solar Absorptance
  0.78;                                   ! Visible Absorptance

OS:Material,
  {770222dd-2d03-4d0d-b7d2-fb06ed296cf1}, ! Handle
  1IN Wood Decking,                       ! Name
  MediumSmooth,                           ! Roughness
  0.0254,                                 ! Thickness {m}
  0.1211,                                 ! Conductivity {W/m-K}
  593,                                    ! Density {kg/m3}
  2510,                                   ! Specific Heat {J/kg-K}
  0.9,                                    ! Thermal Absorptance
  0.78,                                   ! Solar Absorptance
  0.78;                                   ! Visible Absorptance

OS:Material,
  {701f5544-45ef-4bf1-8f41-00d710a5309e}, ! Handle
  Roof Insulation [5],                    ! Name
  MediumRough,                            ! Roughness
  0.286906,                               ! Thickness {m}
  0.049,                                  ! Conductivity {W/m-K}
  265,                                    ! Density {kg/m3}
  836.8,                                  ! Specific Heat {J/kg-K}
  0.9,                                    ! Thermal Absorptance
  0.7,                                    ! Solar Absorptance
  0.7;                                    ! Visible Absorptance

OS:Material,
  {5bdd04c0-89a7-441a-ab5c-2dbec5094eed}, ! Handle
  1/2IN Gypsum,                           ! Name
  Smooth,                                 ! Roughness
  0.01271,                                ! Thickness {m}
  0.16,                                   ! Conductivity {W/m-K}
  784.9,                                  ! Density {kg/m3}
  830,                                    ! Specific Heat {J/kg-K}
  0.9,                                    ! Thermal Absorptance
  0.92,                                   ! Solar Absorptance
  0.92;                                   ! Visible Absorptance

OS:ComponentCost:LineItem,
  {e62ef64f-4a27-42cd-9832-a8e5032ff5b9}, ! Handle
  90.1-1999 Nonres B22 Roof Attic and Other, ! Name
  ,                                       ! Type
  Construction,                           ! Line Item Type
  90.1-1999 Nonres B22 Roof Attic and Other, ! Item Name
  ,                                       ! Object End Use Key
  ,                                       ! Quantity {dimensionless}
  34.757,                                 ! Material Cost {$}
  CostPerArea;                            ! Material Cost Units

OS:ComponentData,
  {db6f86b3-cac5-467d-a286-6e5ba69af135}, ! Handle
  Component Data 1,                       ! Name
  {6169dc5d-c69a-451f-876a-66efce11ddde}, ! UUID
  {b1399a95-45bf-4bfb-af4e-6d249dd651d9}, ! Version UUID
  1363981137,                             ! Creation Timestamp
  1363981137,                             ! Version Timestamp
  {ee80bd1e-3c81-429d-b1c5-4258950d5ce6}, ! Name of Object 1
  {4e3d1776-30cd-4d68-a20b-784199edd956}, ! Name of Object 2
  {770222dd-2d03-4d0d-b7d2-fb06ed296cf1}, ! Name of Object 3
  {701f5544-45ef-4bf1-8f41-00d710a5309e}, ! Name of Object 4
  {5bdd04c0-89a7-441a-ab5c-2dbec5094eed}, ! Name of Object 5
  {e62ef64f-4a27-42cd-9832-a8e5032ff5b9}; ! Name of Object 6

