
OS:Version,
  {c129fd14-6f81-4c7e-a12f-d9d7f852084f}, ! Handle
  0.9.3;                                  ! Version Identifier

OS:ComponentCost:LineItem,
  {cd5a1142-d4a3-4654-89cb-8f79d8591cae}, ! Handle
  189.1-2009 Nonres 6B Ext Wall Metal Building, ! Name
  ,                                       ! Type
  Construction,                           ! Line Item Type
  189.1-2009 Nonres 6B Ext Wall Metal Building, ! Item Name
  ,                                       ! Object End Use Key
  ,                                       ! Quantity {dimensionless}
  110.41,                                 ! Material Cost {$}
  CostPerArea;                            ! Material Cost Units

OS:Material,
  {1c3502fc-b684-4908-95c6-3cf3173ac406}, ! Handle
  Wall Insulation [38],                   ! Name
  MediumRough,                            ! Roughness
  0.139618,                               ! Thickness {m}
  0.045,                                  ! Conductivity {W/m-K}
  265,                                    ! Density {kg/m3}
  836.8,                                  ! Specific Heat {J/kg-K}
  0.9,                                    ! Thermal Absorptance
  0.7,                                    ! Solar Absorptance
  0.7;                                    ! Visible Absorptance

OS:Material,
  {8cfe4ba6-8445-4598-bf76-75e95ca2837a}, ! Handle
  1/2IN Gypsum,                           ! Name
  Smooth,                                 ! Roughness
  0.01271,                                ! Thickness {m}
  0.16,                                   ! Conductivity {W/m-K}
  784.9,                                  ! Density {kg/m3}
  830,                                    ! Specific Heat {J/kg-K}
  0.9,                                    ! Thermal Absorptance
  0.92,                                   ! Solar Absorptance
  0.92;                                   ! Visible Absorptance

OS:Material,
  {5fed5c76-a905-4c58-b669-6ca1922deb1a}, ! Handle
  Metal Siding,                           ! Name
  Smooth,                                 ! Roughness
  0.0015,                                 ! Thickness {m}
  44.96,                                  ! Conductivity {W/m-K}
  7688.86,                                ! Density {kg/m3}
  410,                                    ! Specific Heat {J/kg-K}
  0.9,                                    ! Thermal Absorptance
  0.2,                                    ! Solar Absorptance
  0.2;                                    ! Visible Absorptance

OS:Construction,
  {9ff5d741-81ed-491e-a217-53b94b8e4620}, ! Handle
  189.1-2009 Nonres 6B Ext Wall Metal Building, ! Name
  ,                                       ! Surface Rendering Name
  {5fed5c76-a905-4c58-b669-6ca1922deb1a}, ! Layer 1
  {1c3502fc-b684-4908-95c6-3cf3173ac406}, ! Layer 2
  {8cfe4ba6-8445-4598-bf76-75e95ca2837a}; ! Layer 3

