
OS:Version,
  {e725a34b-f142-49fd-be3c-165ee2c4d398}, ! Handle
  0.9.3;                                  ! Version Identifier

OS:Material,
  {262f96ee-de0d-443e-a61d-e6871bc71125}, ! Handle
  Wall Insulation [10],                   ! Name
  MediumRough,                            ! Roughness
  0.0971136,                              ! Thickness {m}
  0.045,                                  ! Conductivity {W/m-K}
  265,                                    ! Density {kg/m3}
  836.8,                                  ! Specific Heat {J/kg-K}
  0.9,                                    ! Thermal Absorptance
  0.7,                                    ! Solar Absorptance
  0.7;                                    ! Visible Absorptance

OS:Material:NoMass,
  {ffc4401f-e2cf-4b2a-9adb-dea6d649f344}, ! Handle
  MAT-SHEATH,                             ! Name
  Rough,                                  ! Roughness
  0.36256,                                ! Thermal Resistance {m2-K/W}
  0.9,                                    ! Thermal Absorptance
  0.7,                                    ! Solar Absorptance
  0.7;                                    ! Visible Absorptance

OS:Material,
  {3aa5274b-8893-4f18-9a3b-09e3d03fcba6}, ! Handle
  1/2IN Gypsum,                           ! Name
  Smooth,                                 ! Roughness
  0.01271,                                ! Thickness {m}
  0.16,                                   ! Conductivity {W/m-K}
  784.9,                                  ! Density {kg/m3}
  830,                                    ! Specific Heat {J/kg-K}
  0.9,                                    ! Thermal Absorptance
  0.92,                                   ! Solar Absorptance
  0.92;                                   ! Visible Absorptance

OS:Construction,
  {ae12537a-2366-4808-9b90-bf5bce9948e9}, ! Handle
  90.1-2007 Nonres 7A Ext Wall Steel-Framed, ! Name
  ,                                       ! Surface Rendering Name
  {ffc4401f-e2cf-4b2a-9adb-dea6d649f344}, ! Layer 1
  {262f96ee-de0d-443e-a61d-e6871bc71125}, ! Layer 2
  {3aa5274b-8893-4f18-9a3b-09e3d03fcba6}; ! Layer 3

OS:ComponentCost:LineItem,
  {d6c695f6-782f-417f-80f4-15f8c0ce3c2e}, ! Handle
  90.1-2007 Nonres 7A Ext Wall Steel-Framed, ! Name
  ,                                       ! Type
  Construction,                           ! Line Item Type
  90.1-2007 Nonres 7A Ext Wall Steel-Framed, ! Item Name
  ,                                       ! Object End Use Key
  ,                                       ! Quantity {dimensionless}
  94.657,                                 ! Material Cost {$}
  CostPerArea;                            ! Material Cost Units

