
OS:Version,
  {f9192750-521b-414e-a2cb-baf477c2ed4f}, ! Handle
  0.9.3;                                  ! Version Identifier

OS:Construction,
  {3e2565bc-8ccf-4fb2-b301-dd15f5124631}, ! Handle
  90.1-2001 Nonres B20 Ext Slab Unheated - 8in Slab with Carpet, ! Name
  ,                                       ! Surface Rendering Name
  {8fa5e884-e254-46e8-8e63-8fea9205aabc}, ! Layer 1
  {2df0ed6f-8c19-4f41-9dba-b3ccb21d0817}; ! Layer 2

OS:Material,
  {8fa5e884-e254-46e8-8e63-8fea9205aabc}, ! Handle
  MAT-CC05 8 HW CONCRETE,                 ! Name
  Rough,                                  ! Roughness
  0.20321,                                ! Thickness {m}
  1.311,                                  ! Conductivity {W/m-K}
  2240,                                   ! Density {kg/m3}
  836.8,                                  ! Specific Heat {J/kg-K}
  0.9,                                    ! Thermal Absorptance
  0.7,                                    ! Solar Absorptance
  0.7;                                    ! Visible Absorptance

OS:Material:NoMass,
  {2df0ed6f-8c19-4f41-9dba-b3ccb21d0817}, ! Handle
  CP02 CARPET PAD,                        ! Name
  VeryRough,                              ! Roughness
  0.21648,                                ! Thermal Resistance {m2-K/W}
  0.9,                                    ! Thermal Absorptance
  0.7,                                    ! Solar Absorptance
  0.8;                                    ! Visible Absorptance

OS:ComponentCost:LineItem,
  {ae602ae0-f767-491f-90f6-161c5d2d6f7d}, ! Handle
  90.1-2001 Nonres B20 Ext Slab Unheated - 8in Slab with Carpet, ! Name
  ,                                       ! Type
  Construction,                           ! Line Item Type
  90.1-2001 Nonres B20 Ext Slab Unheated - 8in Slab with Carpet, ! Item Name
  ,                                       ! Object End Use Key
  ,                                       ! Quantity {dimensionless}
  45.52,                                  ! Material Cost {$}
  CostPerArea;                            ! Material Cost Units

