
OS:Version,
  {1e475fd0-4651-4851-b31b-46fe7243fe1d}, ! Handle
  0.9.3;                                  ! Version Identifier

OS:Construction,
  {02d66f83-9a03-42d0-b348-6ee7a55a6166}, ! Handle
  189.1-2009 Res 1A Ext Slab Unheated - 4in Slab without Carpet, ! Name
  ,                                       ! Surface Rendering Name
  {11943c55-b19c-41ac-9050-ecd4e6fd4ce3}; ! Layer 1

OS:Material,
  {11943c55-b19c-41ac-9050-ecd4e6fd4ce3}, ! Handle
  MAT-CC05 4 HW CONCRETE,                 ! Name
  Rough,                                  ! Roughness
  0.1016,                                 ! Thickness {m}
  1.311,                                  ! Conductivity {W/m-K}
  2240,                                   ! Density {kg/m3}
  836.8,                                  ! Specific Heat {J/kg-K}
  0.9,                                    ! Thermal Absorptance
  0.7,                                    ! Solar Absorptance
  0.7;                                    ! Visible Absorptance

OS:ComponentCost:LineItem,
  {76a86a79-ff24-48d7-8b71-b90aec08ba5a}, ! Handle
  189.1-2009 Res 1A Ext Slab Unheated - 4in Slab without Carpet, ! Name
  ,                                       ! Type
  Construction,                           ! Line Item Type
  189.1-2009 Res 1A Ext Slab Unheated - 4in Slab without Carpet, ! Item Name
  ,                                       ! Object End Use Key
  ,                                       ! Quantity {dimensionless}
  45.52,                                  ! Material Cost {$}
  CostPerArea;                            ! Material Cost Units

