
! 
OS:Version,
  {9c37d538-db0d-4a47-9850-5bede7e76bd5}, !- Handle
  1.13.0;                                 !- Version Identifier


! {"nombreProductoCorto": "CLIMALIT PLUS con COOL LITE SKN 174 F2 6 (16 argon90%) 44.2", "codigoEAN": "", "handle": "beba4232-20cb-4f8d-a1fb-e4170e1e5db6", "g": 0.41, "tV": 0.68, "u": 1.1, "nombreProducto": "CLIMALIT PLUS con COOL LITE SKN 174 F2 6 (16 argon90%) 44.2\nU:1.1 W/m2K - g:0.41 - Tv: 0.68"}
OS:WindowMaterial:SimpleGlazingSystem,
  {beba4232-20cb-4f8d-a1fb-e4170e1e5db6}, !- Handle
  CLIMALIT PLUS con COOL LITE SKN 174 F2 6 (16 argon90%) 44.2, !- Name
  1.1,                                    !- U-Factor {W/m2-K}
  0.41,                                    !- Solar Heat Gain Coefficient
  0.68;                                    !- Visible Transmittance     
  
  
OS:Construction,
  {2eaea8ef-b789-43df-9a86-44a8bc07e4bb}, !- Handle
  CLIMALIT PLUS con COOL LITE SKN 174 F2 6 (16 argon90%) 44.2,                         !- Name
  ,                                       !- Surface Rendering Name
  {beba4232-20cb-4f8d-a1fb-e4170e1e5db6}; !- Layer 1  

