
OS:Version,
  {61951fb0-173a-4b25-9100-647f298b580e}, ! Handle
  0.9.3;                                  ! Version Identifier

OS:ComponentCost:LineItem,
  {c34e7c4a-22c7-405f-ab59-7b7204326ddc}, ! Handle
  90.1-2001 Res B16 Roof Metal Building,  ! Name
  ,                                       ! Type
  Construction,                           ! Line Item Type
  90.1-2001 Res B16 Roof Metal Building,  ! Item Name
  ,                                       ! Object End Use Key
  ,                                       ! Quantity {dimensionless}
  38.206,                                 ! Material Cost {$}
  CostPerArea;                            ! Material Cost Units

OS:Material,
  {14c5a9cf-4c2c-4031-8d5b-98cb0c86f623}, ! Handle
  Metal Roofing,                          ! Name
  MediumSmooth,                           ! Roughness
  0.001524,                               ! Thickness {m}
  45.006,                                 ! Conductivity {W/m-K}
  7680,                                   ! Density {kg/m3}
  418.4,                                  ! Specific Heat {J/kg-K}
  0.9,                                    ! Thermal Absorptance
  0.7,                                    ! Solar Absorptance
  0.3;                                    ! Visible Absorptance

OS:Construction,
  {d4005331-eeec-4b80-ad93-19580677544b}, ! Handle
  90.1-2001 Res B16 Roof Metal Building,  ! Name
  ,                                       ! Surface Rendering Name
  {14c5a9cf-4c2c-4031-8d5b-98cb0c86f623}, ! Layer 1
  {248b2904-781b-4b60-bc9d-fae3da2ba7d6}; ! Layer 2

OS:Material,
  {248b2904-781b-4b60-bc9d-fae3da2ba7d6}, ! Handle
  Roof Insulation [1],                    ! Name
  MediumRough,                            ! Roughness
  0.123533,                               ! Thickness {m}
  0.049,                                  ! Conductivity {W/m-K}
  265,                                    ! Density {kg/m3}
  836.8,                                  ! Specific Heat {J/kg-K}
  0.9,                                    ! Thermal Absorptance
  0.7,                                    ! Solar Absorptance
  0.7;                                    ! Visible Absorptance

