
OS:Version,
  {734dca56-2b4a-4289-a777-201e7c8744a2}, ! Handle
  0.9.3;                                  ! Version Identifier

OS:ComponentCost:LineItem,
  {5ca297fb-fd55-4f9c-aa7a-cbd90ab88175}, ! Handle
  90.1-2001 Nonres B5 Roof Attic and Other, ! Name
  ,                                       ! Type
  Construction,                           ! Line Item Type
  90.1-2001 Nonres B5 Roof Attic and Other, ! Item Name
  ,                                       ! Object End Use Key
  ,                                       ! Quantity {dimensionless}
  33.39,                                  ! Material Cost {$}
  CostPerArea;                            ! Material Cost Units

OS:Construction,
  {afaf7151-a0c4-4aaf-acef-157f358a5814}, ! Handle
  90.1-2001 Nonres B5 Roof Attic and Other, ! Name
  ,                                       ! Surface Rendering Name
  {f79c254d-6ff1-4241-998d-7057bf33998f}, ! Layer 1
  {bf0fe39c-ec1b-4d65-8164-467f9e591bc3}, ! Layer 2
  {2b06c2a1-faed-4826-8936-3d4352090cd4}, ! Layer 3
  {6a6ad5b6-602d-49f2-ae7b-ea3034909d02}; ! Layer 4

OS:Material,
  {f79c254d-6ff1-4241-998d-7057bf33998f}, ! Handle
  Wood Shingles,                          ! Name
  VeryRough,                              ! Roughness
  0.0178,                                 ! Thickness {m}
  0.115,                                  ! Conductivity {W/m-K}
  513,                                    ! Density {kg/m3}
  1255,                                   ! Specific Heat {J/kg-K}
  0.9,                                    ! Thermal Absorptance
  0.78,                                   ! Solar Absorptance
  0.78;                                   ! Visible Absorptance

OS:Material,
  {bf0fe39c-ec1b-4d65-8164-467f9e591bc3}, ! Handle
  1IN Wood Decking,                       ! Name
  MediumSmooth,                           ! Roughness
  0.0254,                                 ! Thickness {m}
  0.1211,                                 ! Conductivity {W/m-K}
  593,                                    ! Density {kg/m3}
  2510,                                   ! Specific Heat {J/kg-K}
  0.9,                                    ! Thermal Absorptance
  0.78,                                   ! Solar Absorptance
  0.78;                                   ! Visible Absorptance

OS:Material,
  {2b06c2a1-faed-4826-8936-3d4352090cd4}, ! Handle
  Roof Insulation [2],                    ! Name
  MediumRough,                            ! Roughness
  0.221604,                               ! Thickness {m}
  0.049,                                  ! Conductivity {W/m-K}
  265,                                    ! Density {kg/m3}
  836.8,                                  ! Specific Heat {J/kg-K}
  0.9,                                    ! Thermal Absorptance
  0.7,                                    ! Solar Absorptance
  0.7;                                    ! Visible Absorptance

OS:Material,
  {6a6ad5b6-602d-49f2-ae7b-ea3034909d02}, ! Handle
  1/2IN Gypsum,                           ! Name
  Smooth,                                 ! Roughness
  0.01271,                                ! Thickness {m}
  0.16,                                   ! Conductivity {W/m-K}
  784.9,                                  ! Density {kg/m3}
  830,                                    ! Specific Heat {J/kg-K}
  0.9,                                    ! Thermal Absorptance
  0.92,                                   ! Solar Absorptance
  0.92;                                   ! Visible Absorptance

