
OS:Version,
  {ef6478f4-4250-4ee4-a5e1-c0d194cf4288}, ! Handle
  0.9.3;                                  ! Version Identifier

OS:Construction,
  {979b153f-5123-412d-92ac-297268e27459}, ! Handle
  90.1-2001 Nonres B5 Roof Attic and Other, ! Name
  ,                                       ! Surface Rendering Name
  {1477557a-da6c-4dbd-b745-31d27a06ae52}, ! Layer 1
  {8c61a9f9-17b9-4323-a6af-07ec0eddb413}, ! Layer 2
  {c54e43d5-c4c3-4b6d-9638-9b7c87ff3849}, ! Layer 3
  {9a672694-2a62-4e6a-b42e-61028fcc0728}; ! Layer 4

OS:Material,
  {1477557a-da6c-4dbd-b745-31d27a06ae52}, ! Handle
  Wood Shingles,                          ! Name
  VeryRough,                              ! Roughness
  0.0178,                                 ! Thickness {m}
  0.115,                                  ! Conductivity {W/m-K}
  513,                                    ! Density {kg/m3}
  1255,                                   ! Specific Heat {J/kg-K}
  0.9,                                    ! Thermal Absorptance
  0.78,                                   ! Solar Absorptance
  0.78;                                   ! Visible Absorptance

OS:Material,
  {8c61a9f9-17b9-4323-a6af-07ec0eddb413}, ! Handle
  1IN Wood Decking,                       ! Name
  MediumSmooth,                           ! Roughness
  0.0254,                                 ! Thickness {m}
  0.1211,                                 ! Conductivity {W/m-K}
  593,                                    ! Density {kg/m3}
  2510,                                   ! Specific Heat {J/kg-K}
  0.9,                                    ! Thermal Absorptance
  0.78,                                   ! Solar Absorptance
  0.78;                                   ! Visible Absorptance

OS:Material,
  {c54e43d5-c4c3-4b6d-9638-9b7c87ff3849}, ! Handle
  Roof Insulation [2],                    ! Name
  MediumRough,                            ! Roughness
  0.221604,                               ! Thickness {m}
  0.049,                                  ! Conductivity {W/m-K}
  265,                                    ! Density {kg/m3}
  836.8,                                  ! Specific Heat {J/kg-K}
  0.9,                                    ! Thermal Absorptance
  0.7,                                    ! Solar Absorptance
  0.7;                                    ! Visible Absorptance

OS:Material,
  {9a672694-2a62-4e6a-b42e-61028fcc0728}, ! Handle
  1/2IN Gypsum,                           ! Name
  Smooth,                                 ! Roughness
  0.01271,                                ! Thickness {m}
  0.16,                                   ! Conductivity {W/m-K}
  784.9,                                  ! Density {kg/m3}
  830,                                    ! Specific Heat {J/kg-K}
  0.9,                                    ! Thermal Absorptance
  0.92,                                   ! Solar Absorptance
  0.92;                                   ! Visible Absorptance

OS:ComponentCost:LineItem,
  {583729af-4b56-435a-9a59-a19bbff00496}, ! Handle
  90.1-2001 Nonres B5 Roof Attic and Other, ! Name
  ,                                       ! Type
  Construction,                           ! Line Item Type
  90.1-2001 Nonres B5 Roof Attic and Other, ! Item Name
  ,                                       ! Object End Use Key
  ,                                       ! Quantity {dimensionless}
  33.39,                                  ! Material Cost {$}
  CostPerArea;                            ! Material Cost Units

OS:ComponentData,
  {69ac8de7-9bcf-4f5d-9629-f4170631ffb6}, ! Handle
  Component Data 1,                       ! Name
  {2a6efddd-f657-47d2-8dc4-c487f475d61a}, ! UUID
  {6189f632-42b5-446d-bc31-166841928617}, ! Version UUID
  1363981310,                             ! Creation Timestamp
  1363981310,                             ! Version Timestamp
  {979b153f-5123-412d-92ac-297268e27459}, ! Name of Object 1
  {1477557a-da6c-4dbd-b745-31d27a06ae52}, ! Name of Object 2
  {8c61a9f9-17b9-4323-a6af-07ec0eddb413}, ! Name of Object 3
  {c54e43d5-c4c3-4b6d-9638-9b7c87ff3849}, ! Name of Object 4
  {9a672694-2a62-4e6a-b42e-61028fcc0728}, ! Name of Object 5
  {583729af-4b56-435a-9a59-a19bbff00496}; ! Name of Object 6

