
OS:Version,
  {1e2f71d2-bf23-4e83-ac61-6ae82cc50297}, ! Handle
  0.9.3;                                  ! Version Identifier

OS:Material,
  {4e602379-4b85-4685-b886-feb0f59dbfa8}, ! Handle
  MAT-CC05 8 HW CONCRETE,                 ! Name
  Rough,                                  ! Roughness
  0.20321,                                ! Thickness {m}
  1.311,                                  ! Conductivity {W/m-K}
  2240,                                   ! Density {kg/m3}
  836.8,                                  ! Specific Heat {J/kg-K}
  0.9,                                    ! Thermal Absorptance
  0.7,                                    ! Solar Absorptance
  0.7;                                    ! Visible Absorptance

OS:ComponentCost:LineItem,
  {91efaad3-726c-4a6e-ae65-6e1ebc3a8bf8}, ! Handle
  AEDG K12 Nonres 2A Exposed Floor Mass,  ! Name
  ,                                       ! Type
  Construction,                           ! Line Item Type
  AEDG K12 Nonres 2A Exposed Floor Mass,  ! Item Name
  ,                                       ! Object End Use Key
  ,                                       ! Quantity {dimensionless}
  44.965,                                 ! Material Cost {$}
  CostPerArea;                            ! Material Cost Units

OS:Material,
  {6fc0838d-aa4b-4d4e-8f82-526c2d1d4daa}, ! Handle
  Floor Insulation,                       ! Name
  MediumRough,                            ! Roughness
  0.0302276,                              ! Thickness {m}
  0.045,                                  ! Conductivity {W/m-K}
  265,                                    ! Density {kg/m3}
  836.8,                                  ! Specific Heat {J/kg-K}
  0.9,                                    ! Thermal Absorptance
  0.7,                                    ! Solar Absorptance
  0.7;                                    ! Visible Absorptance

OS:Construction,
  {7c33439a-594e-45a0-a4da-d62d722a2e78}, ! Handle
  AEDG K12 Nonres 2A Exposed Floor Mass,  ! Name
  ,                                       ! Surface Rendering Name
  {6fc0838d-aa4b-4d4e-8f82-526c2d1d4daa}, ! Layer 1
  {4e602379-4b85-4685-b886-feb0f59dbfa8}, ! Layer 2
  {b6e8a7c2-6fbb-482f-b038-fbcd2677ada6}; ! Layer 3

OS:Material:NoMass,
  {b6e8a7c2-6fbb-482f-b038-fbcd2677ada6}, ! Handle
  CP02 CARPET PAD EF,                     ! Name
  VeryRough,                              ! Roughness
  0.21648,                                ! Thermal Resistance {m2-K/W}
  0.9,                                    ! Thermal Absorptance
  0.7,                                    ! Solar Absorptance
  0.8;                                    ! Visible Absorptance

