
OS:Version,
  {ff165608-4dbc-46d5-9146-6b5483127c8c}, !- Handle
  1.1.0;                                  !- Version Identifier

OS:Construction,
  {3f2ecfa1-9628-469b-88d6-774bd876e249}, !- Handle
  Dbl Bronze 3mm/6mm Air,                 !- Name
  ,                                       !- Surface Rendering Name
  {683e07ff-03c5-4622-bacd-416599fc92a8}, !- Layer 1
  {af6a7148-c1f0-4192-8f85-a913bc4a00f2}, !- Layer 2
  {1571db41-8343-4a8d-aa00-0b5eefebe3d6}; !- Layer 3

OS:WindowMaterial:Glazing,
  {683e07ff-03c5-4622-bacd-416599fc92a8}, !- Handle
  BRONZE 3MM,                             !- Name
  SpectralAverage,                        !- Optical Data Type
  ,                                       !- Window Glass Spectral Data Set Name
  0.003,                                  !- Thickness {m}
  0.645,                                  !- Solar Transmittance at Normal Incidence
  0.062,                                  !- Front Side Solar Reflectance at Normal Incidence
  0.062,                                  !- Back Side Solar Reflectance at Normal Incidence
  0.685,                                  !- Visible Transmittance at Normal Incidence
  0.065,                                  !- Front Side Visible Reflectance at Normal Incidence
  0.065,                                  !- Back Side Visible Reflectance at Normal Incidence
  0,                                      !- Infrared Transmittance at Normal Incidence
  0.84,                                   !- Front Side Infrared Hemispherical Emissivity
  0.84,                                   !- Back Side Infrared Hemispherical Emissivity
  0.9;                                    !- Conductivity {W/m-K}

OS:WindowMaterial:Gas,
  {af6a7148-c1f0-4192-8f85-a913bc4a00f2}, !- Handle
  AIR 6MM,                                !- Name
  Air,                                    !- Gas Type
  0.0063;                                 !- Thickness {m}

OS:WindowMaterial:Glazing,
  {1571db41-8343-4a8d-aa00-0b5eefebe3d6}, !- Handle
  CLEAR 3MM,                              !- Name
  SpectralAverage,                        !- Optical Data Type
  ,                                       !- Window Glass Spectral Data Set Name
  0.003,                                  !- Thickness {m}
  0.837,                                  !- Solar Transmittance at Normal Incidence
  0.075,                                  !- Front Side Solar Reflectance at Normal Incidence
  0.075,                                  !- Back Side Solar Reflectance at Normal Incidence
  0.898,                                  !- Visible Transmittance at Normal Incidence
  0.081,                                  !- Front Side Visible Reflectance at Normal Incidence
  0.081,                                  !- Back Side Visible Reflectance at Normal Incidence
  0,                                      !- Infrared Transmittance at Normal Incidence
  0.84,                                   !- Front Side Infrared Hemispherical Emissivity
  0.84,                                   !- Back Side Infrared Hemispherical Emissivity
  0.9;                                    !- Conductivity {W/m-K}

