
OS:Version,
  {3bd57a08-bda1-4142-b207-935e81e18668}, ! Handle
  0.9.3;                                  ! Version Identifier

OS:Construction,
  {063b2c65-d37a-4143-866b-c12ea0dbe75d}, ! Handle
  90.1-2007 Nonres 1A Int Wall,           ! Name
  ,                                       ! Surface Rendering Name
  {7b56b932-c663-4603-bc63-9baafc70e771}, ! Layer 1
  {7b56b932-c663-4603-bc63-9baafc70e771}; ! Layer 2

OS:Material,
  {7b56b932-c663-4603-bc63-9baafc70e771}, ! Handle
  GP01 1/2 GYPSUM,                        ! Name
  Smooth,                                 ! Roughness
  0.01271,                                ! Thickness {m}
  0.16,                                   ! Conductivity {W/m-K}
  800,                                    ! Density {kg/m3}
  1090,                                   ! Specific Heat {J/kg-K}
  0.9,                                    ! Thermal Absorptance
  0.7,                                    ! Solar Absorptance
  0.5;                                    ! Visible Absorptance

OS:ComponentCost:LineItem,
  {7d8e3f31-b317-4a28-8ac4-41fae0a5a977}, ! Handle
  90.1-2007 Nonres 1A Int Wall,           ! Name
  ,                                       ! Type
  Construction,                           ! Line Item Type
  90.1-2007 Nonres 1A Int Wall,           ! Item Name
  ,                                       ! Object End Use Key
  ,                                       ! Quantity {dimensionless}
  0,                                      ! Material Cost {$}
  CostPerArea;                            ! Material Cost Units

OS:Material,
  {4b6b5dac-8809-4840-b6bd-322c59093217}, ! Handle
  GP01 1/2 GYPSUM 1,                      ! Name
  Smooth,                                 ! Roughness
  0.01271,                                ! Thickness {m}
  0.16,                                   ! Conductivity {W/m-K}
  800,                                    ! Density {kg/m3}
  1090,                                   ! Specific Heat {J/kg-K}
  0.9,                                    ! Thermal Absorptance
  0.7,                                    ! Solar Absorptance
  0.5;                                    ! Visible Absorptance

