
OS:Version,
  {f4a2f568-0c58-4739-b373-8807b05a27ff}, ! Handle
  0.9.3;                                  ! Version Identifier

OS:Construction,
  {345dd540-f623-482c-a5ac-f24ea882bd6b}, ! Handle
  90.1-2007 Nonres 1A Int Wall,           ! Name
  ,                                       ! Surface Rendering Name
  {2894feec-c109-4f9d-b593-04b43668ba06}, ! Layer 1
  {2894feec-c109-4f9d-b593-04b43668ba06}; ! Layer 2

OS:Material,
  {2894feec-c109-4f9d-b593-04b43668ba06}, ! Handle
  GP01 1/2 GYPSUM,                        ! Name
  Smooth,                                 ! Roughness
  0.01271,                                ! Thickness {m}
  0.16,                                   ! Conductivity {W/m-K}
  800,                                    ! Density {kg/m3}
  1090,                                   ! Specific Heat {J/kg-K}
  0.9,                                    ! Thermal Absorptance
  0.7,                                    ! Solar Absorptance
  0.5;                                    ! Visible Absorptance

OS:ComponentCost:LineItem,
  {ab76bb77-d03a-4639-83db-43f16df4f067}, ! Handle
  90.1-2007 Nonres 1A Int Wall,           ! Name
  ,                                       ! Type
  Construction,                           ! Line Item Type
  90.1-2007 Nonres 1A Int Wall,           ! Item Name
  ,                                       ! Object End Use Key
  ,                                       ! Quantity {dimensionless}
  0,                                      ! Material Cost {$}
  CostPerArea;                            ! Material Cost Units

OS:ComponentData,
  {61164f3c-dee1-41e9-90a4-ad5bb8691d5f}, ! Handle
  Component Data 1,                       ! Name
  {fa53a856-3325-4148-9747-2119ca15d3ce}, ! UUID
  {1f5897e3-37be-440f-9e59-526eeafc7d1c}, ! Version UUID
  1363981774,                             ! Creation Timestamp
  1363981774,                             ! Version Timestamp
  {345dd540-f623-482c-a5ac-f24ea882bd6b}, ! Name of Object 1
  {2894feec-c109-4f9d-b593-04b43668ba06}, ! Name of Object 2
  {ab76bb77-d03a-4639-83db-43f16df4f067}; ! Name of Object 3

