
OS:Version,
  {8459e2d4-403f-4c34-a07c-840c70836f45}, ! Handle
  0.9.3;                                  ! Version Identifier

OS:ComponentCost:LineItem,
  {802845c6-e806-4e44-80c5-2da5a5166ade}, ! Handle
  90.1-1999 Res B14 Roof IEAD,            ! Name
  ,                                       ! Type
  Construction,                           ! Line Item Type
  90.1-1999 Res B14 Roof IEAD,            ! Item Name
  ,                                       ! Object End Use Key
  ,                                       ! Quantity {dimensionless}
  49.208,                                 ! Material Cost {$}
  CostPerArea;                            ! Material Cost Units

OS:Material,
  {5b9ca4c1-76ab-41e5-97d3-d1245386d681}, ! Handle
  Roof Membrane,                          ! Name
  VeryRough,                              ! Roughness
  0.0095,                                 ! Thickness {m}
  0.16,                                   ! Conductivity {W/m-K}
  1121.29,                                ! Density {kg/m3}
  1460,                                   ! Specific Heat {J/kg-K}
  0.9,                                    ! Thermal Absorptance
  0.7,                                    ! Solar Absorptance
  0.7;                                    ! Visible Absorptance

OS:Construction,
  {dfd410a2-c693-4699-9407-26cdeeff0f2a}, ! Handle
  90.1-1999 Res B14 Roof IEAD,            ! Name
  ,                                       ! Surface Rendering Name
  {5b9ca4c1-76ab-41e5-97d3-d1245386d681}, ! Layer 1
  {01e14831-32d9-4e4c-8c6e-4cb79aaa4534}, ! Layer 2
  {9d10b297-adb6-4f2a-a250-afc42f662865}; ! Layer 3

OS:Material,
  {01e14831-32d9-4e4c-8c6e-4cb79aaa4534}, ! Handle
  Roof Insulation,                        ! Name
  MediumRough,                            ! Roughness
  0.124958,                               ! Thickness {m}
  0.049,                                  ! Conductivity {W/m-K}
  265,                                    ! Density {kg/m3}
  836.8,                                  ! Specific Heat {J/kg-K}
  0.9,                                    ! Thermal Absorptance
  0.7,                                    ! Solar Absorptance
  0.7;                                    ! Visible Absorptance

OS:Material,
  {9d10b297-adb6-4f2a-a250-afc42f662865}, ! Handle
  Metal Decking,                          ! Name
  MediumSmooth,                           ! Roughness
  0.001524,                               ! Thickness {m}
  45.006,                                 ! Conductivity {W/m-K}
  7680,                                   ! Density {kg/m3}
  418.4,                                  ! Specific Heat {J/kg-K}
  0.9,                                    ! Thermal Absorptance
  0.7,                                    ! Solar Absorptance
  0.3;                                    ! Visible Absorptance

