
OS:Version,
  {ddc2a7d3-dd09-4487-a63f-ce17539eb2d8}, ! Handle
  0.9.3;                                  ! Version Identifier

OS:ComponentCost:LineItem,
  {e6a7b677-e141-45c5-8445-809ca6f32061}, ! Handle
  90.1-2004 Nonres 3C Ext Wall Mass,      ! Name
  ,                                       ! Type
  Construction,                           ! Line Item Type
  90.1-2004 Nonres 3C Ext Wall Mass,      ! Item Name
  ,                                       ! Object End Use Key
  ,                                       ! Quantity {dimensionless}
  58.897,                                 ! Material Cost {$}
  CostPerArea;                            ! Material Cost Units

OS:Material,
  {dfd9eb28-10a8-42e8-97f8-3fa79f543c7b}, ! Handle
  8IN Concrete HW,                        ! Name
  MediumRough,                            ! Roughness
  0.2033,                                 ! Thickness {m}
  1.7296,                                 ! Conductivity {W/m-K}
  2243,                                   ! Density {kg/m3}
  837,                                    ! Specific Heat {J/kg-K}
  0.9,                                    ! Thermal Absorptance
  0.65,                                   ! Solar Absorptance
  0.65;                                   ! Visible Absorptance

OS:Material,
  {5fbab012-1a47-4365-9189-0dc0389a5397}, ! Handle
  1IN Stucco,                             ! Name
  Smooth,                                 ! Roughness
  0.0253,                                 ! Thickness {m}
  0.6918,                                 ! Conductivity {W/m-K}
  1858,                                   ! Density {kg/m3}
  837,                                    ! Specific Heat {J/kg-K}
  0.9,                                    ! Thermal Absorptance
  0.92,                                   ! Solar Absorptance
  0.92;                                   ! Visible Absorptance

OS:Material,
  {e8d277d0-f132-47d6-a52f-d7fae62dd657}, ! Handle
  Wall Insulation [4],                    ! Name
  MediumRough,                            ! Roughness
  0.0338606,                              ! Thickness {m}
  0.0432,                                 ! Conductivity {W/m-K}
  91,                                     ! Density {kg/m3}
  837,                                    ! Specific Heat {J/kg-K}
  0.9,                                    ! Thermal Absorptance
  0.5,                                    ! Solar Absorptance
  0.5;                                    ! Visible Absorptance

OS:Construction,
  {80f6f9eb-53cb-4206-acb2-af34f7f0ec1b}, ! Handle
  90.1-2004 Nonres 3C Ext Wall Mass,      ! Name
  ,                                       ! Surface Rendering Name
  {5fbab012-1a47-4365-9189-0dc0389a5397}, ! Layer 1
  {dfd9eb28-10a8-42e8-97f8-3fa79f543c7b}, ! Layer 2
  {e8d277d0-f132-47d6-a52f-d7fae62dd657}, ! Layer 3
  {e13e5f26-de7d-4faf-a96c-6ea1cb7f60fa}; ! Layer 4

OS:Material,
  {e13e5f26-de7d-4faf-a96c-6ea1cb7f60fa}, ! Handle
  1/2IN Gypsum,                           ! Name
  Smooth,                                 ! Roughness
  0.01271,                                ! Thickness {m}
  0.16,                                   ! Conductivity {W/m-K}
  784.9,                                  ! Density {kg/m3}
  830,                                    ! Specific Heat {J/kg-K}
  0.9,                                    ! Thermal Absorptance
  0.92,                                   ! Solar Absorptance
  0.92;                                   ! Visible Absorptance

