
OS:Version,
  {5b49a52c-84e3-444b-be87-76bfedb407eb}, ! Handle
  0.9.3;                                  ! Version Identifier

OS:Material,
  {06696475-2d14-4032-adb1-2fd9afa5ef9a}, ! Handle
  Metal Siding,                           ! Name
  Smooth,                                 ! Roughness
  0.0015,                                 ! Thickness {m}
  44.96,                                  ! Conductivity {W/m-K}
  7688.86,                                ! Density {kg/m3}
  410,                                    ! Specific Heat {J/kg-K}
  0.9,                                    ! Thermal Absorptance
  0.2,                                    ! Solar Absorptance
  0.2;                                    ! Visible Absorptance

OS:Material,
  {d7bcb583-bfdd-44d3-8a9a-522d1ec629e8}, ! Handle
  Wall Insulation,                        ! Name
  MediumRough,                            ! Roughness
  0.0598725,                              ! Thickness {m}
  0.045,                                  ! Conductivity {W/m-K}
  265,                                    ! Density {kg/m3}
  836.8,                                  ! Specific Heat {J/kg-K}
  0.9,                                    ! Thermal Absorptance
  0.7,                                    ! Solar Absorptance
  0.7;                                    ! Visible Absorptance

OS:ComponentCost:LineItem,
  {1313217f-a9eb-4b66-b30d-f85430047641}, ! Handle
  AEDG-SmOffice 1A Ext Wall Metal Building, ! Name
  ,                                       ! Type
  Construction,                           ! Line Item Type
  AEDG-SmOffice 1A Ext Wall Metal Building, ! Item Name
  ,                                       ! Object End Use Key
  ,                                       ! Quantity {dimensionless}
  98.78,                                  ! Material Cost {$}
  CostPerArea;                            ! Material Cost Units

OS:Construction,
  {295f0f30-7ae0-4d5c-8876-13730654c6a8}, ! Handle
  AEDG-SmOffice 1A Ext Wall Metal Building, ! Name
  ,                                       ! Surface Rendering Name
  {06696475-2d14-4032-adb1-2fd9afa5ef9a}, ! Layer 1
  {d7bcb583-bfdd-44d3-8a9a-522d1ec629e8}, ! Layer 2
  {6530b965-7173-487e-a3ba-7e744704cfdb}; ! Layer 3

OS:Material,
  {6530b965-7173-487e-a3ba-7e744704cfdb}, ! Handle
  1/2IN Gypsum,                           ! Name
  Smooth,                                 ! Roughness
  0.01271,                                ! Thickness {m}
  0.16,                                   ! Conductivity {W/m-K}
  784.9,                                  ! Density {kg/m3}
  830,                                    ! Specific Heat {J/kg-K}
  0.9,                                    ! Thermal Absorptance
  0.92,                                   ! Solar Absorptance
  0.92;                                   ! Visible Absorptance

