
OS:Version,
  {1ecd5612-c9f0-4792-a1c3-d47cccceacfc}, ! Handle
  0.9.3;                                  ! Version Identifier

OS:Material,
  {0b4d7483-f8de-43a1-ba36-6832ac24205b}, ! Handle
  AtticFloor Insulation [1],              ! Name
  MediumRough,                            ! Roughness
  0.303719,                               ! Thickness {m}
  0.049,                                  ! Conductivity {W/m-K}
  265,                                    ! Density {kg/m3}
  836.8,                                  ! Specific Heat {J/kg-K}
  0.9,                                    ! Thermal Absorptance
  0.7,                                    ! Solar Absorptance
  0.7;                                    ! Visible Absorptance

OS:ComponentCost:LineItem,
  {f1cd4537-884a-4ef6-a028-6ae163269f41}, ! Handle
  90.1-2007 Nonres 2A Attic Floor,        ! Name
  ,                                       ! Type
  Construction,                           ! Line Item Type
  90.1-2007 Nonres 2A Attic Floor,        ! Item Name
  ,                                       ! Object End Use Key
  ,                                       ! Quantity {dimensionless}
  35.009,                                 ! Material Cost {$}
  CostPerArea;                            ! Material Cost Units

OS:Construction,
  {19a34a4f-d1df-4f08-b61e-12c40b2a97ec}, ! Handle
  90.1-2007 Nonres 2A Attic Floor,        ! Name
  ,                                       ! Surface Rendering Name
  {40d44778-8c73-4218-88a2-97773babecf1}, ! Layer 1
  {0b4d7483-f8de-43a1-ba36-6832ac24205b}, ! Layer 2
  {f6056443-b087-41a1-88a0-c2667aabab91}; ! Layer 3

OS:Material,
  {40d44778-8c73-4218-88a2-97773babecf1}, ! Handle
  1/2IN Gypsum Top,                       ! Name
  Smooth,                                 ! Roughness
  0.01271,                                ! Thickness {m}
  0.16,                                   ! Conductivity {W/m-K}
  784.9,                                  ! Density {kg/m3}
  830,                                    ! Specific Heat {J/kg-K}
  0.9,                                    ! Thermal Absorptance
  0.92,                                   ! Solar Absorptance
  0.92;                                   ! Visible Absorptance

OS:Material,
  {f6056443-b087-41a1-88a0-c2667aabab91}, ! Handle
  1/2IN Gypsum Bottom,                    ! Name
  Smooth,                                 ! Roughness
  0.01271,                                ! Thickness {m}
  0.16,                                   ! Conductivity {W/m-K}
  784.9,                                  ! Density {kg/m3}
  830,                                    ! Specific Heat {J/kg-K}
  0.9,                                    ! Thermal Absorptance
  0.92,                                   ! Solar Absorptance
  0.92;                                   ! Visible Absorptance

