
OS:Version,
  {998463e0-65af-48cb-ab0a-0ddaa5cb3a43}, ! Handle
  0.9.3;                                  ! Version Identifier

OS:Material:NoMass,
  {4d29485e-9c79-40b6-8b8e-744a324af0f1}, ! Handle
  CP02 CARPET PAD,                        ! Name
  VeryRough,                              ! Roughness
  0.21648,                                ! Thermal Resistance {m2-K/W}
  0.9,                                    ! Thermal Absorptance
  0.7,                                    ! Solar Absorptance
  0.8;                                    ! Visible Absorptance

OS:ComponentCost:LineItem,
  {bdb79c48-a927-44d0-9f22-e844b0f1baee}, ! Handle
  AEDG-SmOffice 8A Ext Slab Unheated - 4in Slab with Carpet, ! Name
  ,                                       ! Type
  Construction,                           ! Line Item Type
  AEDG-SmOffice 8A Ext Slab Unheated - 4in Slab with Carpet, ! Item Name
  ,                                       ! Object End Use Key
  ,                                       ! Quantity {dimensionless}
  45.52,                                  ! Material Cost {$}
  CostPerArea;                            ! Material Cost Units

OS:Material,
  {986706a6-835f-4444-a7a5-514a646bf1ce}, ! Handle
  MAT-CC05 4 HW CONCRETE,                 ! Name
  Rough,                                  ! Roughness
  0.1016,                                 ! Thickness {m}
  1.311,                                  ! Conductivity {W/m-K}
  2240,                                   ! Density {kg/m3}
  836.8,                                  ! Specific Heat {J/kg-K}
  0.9,                                    ! Thermal Absorptance
  0.7,                                    ! Solar Absorptance
  0.7;                                    ! Visible Absorptance

OS:Construction,
  {d0e277f9-b17a-4bdc-a970-13bf2cbcf98f}, ! Handle
  AEDG-SmOffice 8A Ext Slab Unheated - 4in Slab with Carpet, ! Name
  ,                                       ! Surface Rendering Name
  {986706a6-835f-4444-a7a5-514a646bf1ce}, ! Layer 1
  {4d29485e-9c79-40b6-8b8e-744a324af0f1}; ! Layer 2

