
OS:Version,
  {ea482b42-d531-49bd-a5a7-e5862888b6ce}, ! Handle
  0.9.3;                                  ! Version Identifier

OS:Construction,
  {27b18cea-4296-414c-9cb9-524fbb475169}, ! Handle
  90.1-1999 Res B23 Ext Wall Metal Building, ! Name
  ,                                       ! Surface Rendering Name
  {e123bf90-3faf-47c6-8505-7022527243c5}, ! Layer 1
  {449da803-fc1d-419b-86ca-6efefc2c20e5}, ! Layer 2
  {6226f8b0-0277-4401-ba2a-367a922225f5}; ! Layer 3

OS:Material,
  {e123bf90-3faf-47c6-8505-7022527243c5}, ! Handle
  Metal Siding,                           ! Name
  Smooth,                                 ! Roughness
  0.0015,                                 ! Thickness {m}
  44.96,                                  ! Conductivity {W/m-K}
  7688.86,                                ! Density {kg/m3}
  410,                                    ! Specific Heat {J/kg-K}
  0.9,                                    ! Thermal Absorptance
  0.2,                                    ! Solar Absorptance
  0.2;                                    ! Visible Absorptance

OS:Material,
  {449da803-fc1d-419b-86ca-6efefc2c20e5}, ! Handle
  Wall Insulation [9],                    ! Name
  MediumRough,                            ! Roughness
  0.128642,                               ! Thickness {m}
  0.045,                                  ! Conductivity {W/m-K}
  265,                                    ! Density {kg/m3}
  836.8,                                  ! Specific Heat {J/kg-K}
  0.9,                                    ! Thermal Absorptance
  0.7,                                    ! Solar Absorptance
  0.7;                                    ! Visible Absorptance

OS:Material,
  {6226f8b0-0277-4401-ba2a-367a922225f5}, ! Handle
  1/2IN Gypsum,                           ! Name
  Smooth,                                 ! Roughness
  0.01271,                                ! Thickness {m}
  0.16,                                   ! Conductivity {W/m-K}
  784.9,                                  ! Density {kg/m3}
  830,                                    ! Specific Heat {J/kg-K}
  0.9,                                    ! Thermal Absorptance
  0.92,                                   ! Solar Absorptance
  0.92;                                   ! Visible Absorptance

OS:ComponentCost:LineItem,
  {460f04f8-0de1-4177-ad95-ae587a7a0d98}, ! Handle
  90.1-1999 Res B23 Ext Wall Metal Building, ! Name
  ,                                       ! Type
  Construction,                           ! Line Item Type
  90.1-1999 Res B23 Ext Wall Metal Building, ! Item Name
  ,                                       ! Object End Use Key
  ,                                       ! Quantity {dimensionless}
  107.698,                                ! Material Cost {$}
  CostPerArea;                            ! Material Cost Units

OS:ComponentData,
  {b947a648-ba5d-4387-a17a-39db49399be1}, ! Handle
  Component Data 1,                       ! Name
  {5f88639c-cf0d-4024-b40b-d4c6cb3e8129}, ! UUID
  {ca5180e6-6da0-4555-9cae-be92bbd538b7}, ! Version UUID
  1363981265,                             ! Creation Timestamp
  1363981265,                             ! Version Timestamp
  {27b18cea-4296-414c-9cb9-524fbb475169}, ! Name of Object 1
  {e123bf90-3faf-47c6-8505-7022527243c5}, ! Name of Object 2
  {449da803-fc1d-419b-86ca-6efefc2c20e5}, ! Name of Object 3
  {6226f8b0-0277-4401-ba2a-367a922225f5}, ! Name of Object 4
  {460f04f8-0de1-4177-ad95-ae587a7a0d98}; ! Name of Object 5

