
OS:Version,
  {91a2f48d-1dd7-46a0-b79c-660e4e001c49}, ! Handle
  0.9.3;                                  ! Version Identifier

OS:Construction,
  {81a6769b-ffce-4d44-ab15-9c0dc3555fbe}, ! Handle
  90.1-1999 Res B23 Ext Wall Metal Building, ! Name
  ,                                       ! Surface Rendering Name
  {29eaba2f-37c6-4b1f-825b-b72240a105f7}, ! Layer 1
  {9a81239a-9f58-44f2-a83f-1f210c7d96f5}, ! Layer 2
  {1782ea99-2839-415b-940f-a170d488cad6}; ! Layer 3

OS:Material,
  {29eaba2f-37c6-4b1f-825b-b72240a105f7}, ! Handle
  Metal Siding,                           ! Name
  Smooth,                                 ! Roughness
  0.0015,                                 ! Thickness {m}
  44.96,                                  ! Conductivity {W/m-K}
  7688.86,                                ! Density {kg/m3}
  410,                                    ! Specific Heat {J/kg-K}
  0.9,                                    ! Thermal Absorptance
  0.2,                                    ! Solar Absorptance
  0.2;                                    ! Visible Absorptance

OS:Material,
  {9a81239a-9f58-44f2-a83f-1f210c7d96f5}, ! Handle
  Wall Insulation [9],                    ! Name
  MediumRough,                            ! Roughness
  0.128642,                               ! Thickness {m}
  0.045,                                  ! Conductivity {W/m-K}
  265,                                    ! Density {kg/m3}
  836.8,                                  ! Specific Heat {J/kg-K}
  0.9,                                    ! Thermal Absorptance
  0.7,                                    ! Solar Absorptance
  0.7;                                    ! Visible Absorptance

OS:Material,
  {1782ea99-2839-415b-940f-a170d488cad6}, ! Handle
  1/2IN Gypsum,                           ! Name
  Smooth,                                 ! Roughness
  0.01271,                                ! Thickness {m}
  0.16,                                   ! Conductivity {W/m-K}
  784.9,                                  ! Density {kg/m3}
  830,                                    ! Specific Heat {J/kg-K}
  0.9,                                    ! Thermal Absorptance
  0.92,                                   ! Solar Absorptance
  0.92;                                   ! Visible Absorptance

OS:ComponentCost:LineItem,
  {40b24c7b-23d9-44d3-98a8-25786dd84b2a}, ! Handle
  90.1-1999 Res B23 Ext Wall Metal Building, ! Name
  ,                                       ! Type
  Construction,                           ! Line Item Type
  90.1-1999 Res B23 Ext Wall Metal Building, ! Item Name
  ,                                       ! Object End Use Key
  ,                                       ! Quantity {dimensionless}
  107.698,                                ! Material Cost {$}
  CostPerArea;                            ! Material Cost Units

