
OS:Version,
  {29e798c3-68ad-41f4-85be-bb66acb4b0d8}, ! Handle
  0.9.3;                                  ! Version Identifier

OS:Material:NoMass,
  {643f825e-dc1f-423e-b16d-6b4c7676915a}, ! Handle
  CP02 CARPET PAD,                        ! Name
  VeryRough,                              ! Roughness
  0.21648,                                ! Thermal Resistance {m2-K/W}
  0.9,                                    ! Thermal Absorptance
  0.7,                                    ! Solar Absorptance
  0.8;                                    ! Visible Absorptance

OS:ComponentCost:LineItem,
  {0a6650ba-7e3e-4e77-9986-2749254a824e}, ! Handle
  189.1-2009 Nonres 6B Ext Slab Unheated - 4in Slab with Carpet, ! Name
  ,                                       ! Type
  Construction,                           ! Line Item Type
  189.1-2009 Nonres 6B Ext Slab Unheated - 4in Slab with Carpet, ! Item Name
  ,                                       ! Object End Use Key
  ,                                       ! Quantity {dimensionless}
  45.52,                                  ! Material Cost {$}
  CostPerArea;                            ! Material Cost Units

OS:Material,
  {b942b735-1ad4-4993-a176-df1366de14ae}, ! Handle
  MAT-CC05 4 HW CONCRETE,                 ! Name
  Rough,                                  ! Roughness
  0.1016,                                 ! Thickness {m}
  1.311,                                  ! Conductivity {W/m-K}
  2240,                                   ! Density {kg/m3}
  836.8,                                  ! Specific Heat {J/kg-K}
  0.9,                                    ! Thermal Absorptance
  0.7,                                    ! Solar Absorptance
  0.7;                                    ! Visible Absorptance

OS:Construction,
  {d9bc9780-74f1-49f5-88a5-61542c83f00b}, ! Handle
  189.1-2009 Nonres 6B Ext Slab Unheated - 4in Slab with Carpet, ! Name
  ,                                       ! Surface Rendering Name
  {b942b735-1ad4-4993-a176-df1366de14ae}, ! Layer 1
  {643f825e-dc1f-423e-b16d-6b4c7676915a}; ! Layer 2

