
OS:Version,
  {8944c675-877d-4f3d-8520-ecb64319f343}, ! Handle
  0.9.3;                                  ! Version Identifier

OS:WindowMaterial:Glazing,
  {7bec4b4b-cb9a-4f85-89fd-ee1a4f8e78a6}, ! Handle
  Theoretical Glass [175],                ! Name
  SpectralAverage,                        ! Optical Data Type
  ,                                       ! Window Glass Spectral Data Set Name
  0.003,                                  ! Thickness {m}
  0.243375,                               ! Solar Transmittance at Normal Incidence
  0.706625,                               ! Front Side Solar Reflectance at Normal Incidence
  0.706625,                               ! Back Side Solar Reflectance at Normal Incidence
  0.319199,                               ! Visible Transmittance at Normal Incidence
  0.630801,                               ! Front Side Visible Reflectance at Normal Incidence
  0.630801,                               ! Back Side Visible Reflectance at Normal Incidence
  0,                                      ! Infrared Transmittance at Normal Incidence
  0.9,                                    ! Front Side Infrared Hemispherical Emissivity
  0.9,                                    ! Back Side Infrared Hemispherical Emissivity
  0.0220611;                              ! Conductivity {W/m-K}

OS:ComponentCost:LineItem,
  {211e4084-60b4-4fc7-8410-e0acfbf410e5}, ! Handle
  90.1-2007 Res 3A Window Metal framing curtainwall-storefront, ! Name
  ,                                       ! Type
  Construction,                           ! Line Item Type
  90.1-2007 Res 3A Window Metal framing curtainwall-storefront, ! Item Name
  ,                                       ! Object End Use Key
  ,                                       ! Quantity {dimensionless}
  563.991,                                ! Material Cost {$}
  CostPerArea;                            ! Material Cost Units

OS:Construction,
  {efbdabbf-1990-4604-a50c-d9d7fd3675bb}, ! Handle
  90.1-2007 Res 3A Window Metal framing curtainwall-storefront, ! Name
  ,                                       ! Surface Rendering Name
  {7bec4b4b-cb9a-4f85-89fd-ee1a4f8e78a6}; ! Layer 1

