
OS:Version,
  {94770e62-2484-430e-af93-a317d6f60c42}, ! Handle
  0.9.3;                                  ! Version Identifier

OS:ComponentCost:LineItem,
  {62ce05b1-ef57-45bf-8240-9b22e4cd33d7}, ! Handle
  90.1-2001 Nonres B7 Int Wall,           ! Name
  ,                                       ! Type
  Construction,                           ! Line Item Type
  90.1-2001 Nonres B7 Int Wall,           ! Item Name
  ,                                       ! Object End Use Key
  ,                                       ! Quantity {dimensionless}
  0,                                      ! Material Cost {$}
  CostPerArea;                            ! Material Cost Units

OS:Material,
  {ef8f1ca3-ed80-4712-9c23-5d09b3475cdb}, ! Handle
  GP01 1/2 GYPSUM 1,                      ! Name
  Smooth,                                 ! Roughness
  0.01271,                                ! Thickness {m}
  0.16,                                   ! Conductivity {W/m-K}
  800,                                    ! Density {kg/m3}
  1090,                                   ! Specific Heat {J/kg-K}
  0.9,                                    ! Thermal Absorptance
  0.7,                                    ! Solar Absorptance
  0.5;                                    ! Visible Absorptance

OS:Construction,
  {cff21578-4be5-43c2-a8d4-abf2cf84402f}, ! Handle
  90.1-2001 Nonres B7 Int Wall,           ! Name
  ,                                       ! Surface Rendering Name
  {1b6212f5-3091-4061-a3cf-920497649498}, ! Layer 1
  {1b6212f5-3091-4061-a3cf-920497649498}; ! Layer 2

OS:Material,
  {1b6212f5-3091-4061-a3cf-920497649498}, ! Handle
  GP01 1/2 GYPSUM,                        ! Name
  Smooth,                                 ! Roughness
  0.01271,                                ! Thickness {m}
  0.16,                                   ! Conductivity {W/m-K}
  800,                                    ! Density {kg/m3}
  1090,                                   ! Specific Heat {J/kg-K}
  0.9,                                    ! Thermal Absorptance
  0.7,                                    ! Solar Absorptance
  0.5;                                    ! Visible Absorptance

