
OS:Version,
  {a5952ab6-c3f1-47b6-91b1-a2378d22ed41}, ! Handle
  0.9.3;                                  ! Version Identifier

OS:ComponentCost:LineItem,
  {7e68bb80-afd3-46f0-a5c4-87fb85ce2fd1}, ! Handle
  189.1-2009 Res 3A Window Nonmetal framing, ! Name
  ,                                       ! Type
  Construction,                           ! Line Item Type
  189.1-2009 Res 3A Window Nonmetal framing, ! Item Name
  ,                                       ! Object End Use Key
  ,                                       ! Quantity {dimensionless}
  563.991,                                ! Material Cost {$}
  CostPerArea;                            ! Material Cost Units

OS:Construction,
  {4099ef32-583a-487f-9ab3-d7c3d98d9310}, ! Handle
  189.1-2009 Res 3A Window Nonmetal framing, ! Name
  ,                                       ! Surface Rendering Name
  {15f68300-b451-44b9-80fe-7b1ff1bbc3c6}; ! Layer 1

OS:WindowMaterial:Glazing,
  {15f68300-b451-44b9-80fe-7b1ff1bbc3c6}, ! Handle
  Theoretical Glass [199],                ! Name
  SpectralAverage,                        ! Optical Data Type
  ,                                       ! Window Glass Spectral Data Set Name
  0.003,                                  ! Thickness {m}
  0.231524,                               ! Solar Transmittance at Normal Incidence
  0.718476,                               ! Front Side Solar Reflectance at Normal Incidence
  0.718476,                               ! Back Side Solar Reflectance at Normal Incidence
  0.319199,                               ! Visible Transmittance at Normal Incidence
  0.630801,                               ! Front Side Visible Reflectance at Normal Incidence
  0.630801,                               ! Back Side Visible Reflectance at Normal Incidence
  0,                                      ! Infrared Transmittance at Normal Incidence
  0.9,                                    ! Front Side Infrared Hemispherical Emissivity
  0.9,                                    ! Back Side Infrared Hemispherical Emissivity
  0.0133137;                              ! Conductivity {W/m-K}

