
OS:Version,
  {889c27c2-1b1d-4a56-8ab4-d9aeb1420f1d}, ! Handle
  0.9.3;                                  ! Version Identifier

OS:ComponentCost:LineItem,
  {7a3a263f-4a7c-4188-ae10-5e5e188c5eec}, ! Handle
  AEDG SHC Nonres 6B Ext Slab Unheated - 8in Slab with Carpet, ! Name
  ,                                       ! Type
  Construction,                           ! Line Item Type
  AEDG SHC Nonres 6B Ext Slab Unheated - 8in Slab with Carpet, ! Item Name
  ,                                       ! Object End Use Key
  ,                                       ! Quantity {dimensionless}
  0,                                      ! Material Cost {$}
  CostPerArea;                            ! Material Cost Units

OS:Material,
  {58bae8f1-15d3-46e4-96ed-08c556f06785}, ! Handle
  Floor Insulation [16],                  ! Name
  MediumRough,                            ! Roughness
  0.00636355,                             ! Thickness {m}
  0.045,                                  ! Conductivity {W/m-K}
  265,                                    ! Density {kg/m3}
  836.8,                                  ! Specific Heat {J/kg-K}
  0.9,                                    ! Thermal Absorptance
  0.7,                                    ! Solar Absorptance
  0.7;                                    ! Visible Absorptance

OS:Material:NoMass,
  {35b54783-cd7e-47e6-b7c6-7a2d25b0621f}, ! Handle
  CP02 CARPET PAD,                        ! Name
  VeryRough,                              ! Roughness
  0.21648,                                ! Thermal Resistance {m2-K/W}
  0.9,                                    ! Thermal Absorptance
  0.7,                                    ! Solar Absorptance
  0.8;                                    ! Visible Absorptance

OS:Construction,
  {7d76fef2-50bd-4a81-a01a-730806aa1509}, ! Handle
  AEDG SHC Nonres 6B Ext Slab Unheated - 8in Slab with Carpet, ! Name
  ,                                       ! Surface Rendering Name
  {58bae8f1-15d3-46e4-96ed-08c556f06785}, ! Layer 1
  {425edd37-4982-40dc-8072-d4bad389855a}, ! Layer 2
  {35b54783-cd7e-47e6-b7c6-7a2d25b0621f}; ! Layer 3

OS:Material,
  {425edd37-4982-40dc-8072-d4bad389855a}, ! Handle
  MAT-CC05 8 HW CONCRETE,                 ! Name
  Rough,                                  ! Roughness
  0.20321,                                ! Thickness {m}
  1.311,                                  ! Conductivity {W/m-K}
  2240,                                   ! Density {kg/m3}
  836.8,                                  ! Specific Heat {J/kg-K}
  0.9,                                    ! Thermal Absorptance
  0.7,                                    ! Solar Absorptance
  0.7;                                    ! Visible Absorptance

