
OS:Version,
  {1c967947-97cc-4ab0-b672-e1174f25c089}, ! Handle
  0.9.3;                                  ! Version Identifier

OS:Material,
  {aa2b51d7-43a7-477a-b998-4099be5c858d}, ! Handle
  MAT-CC05 8 HW CONCRETE,                 ! Name
  Rough,                                  ! Roughness
  0.20321,                                ! Thickness {m}
  1.311,                                  ! Conductivity {W/m-K}
  2240,                                   ! Density {kg/m3}
  836.8,                                  ! Specific Heat {J/kg-K}
  0.9,                                    ! Thermal Absorptance
  0.7,                                    ! Solar Absorptance
  0.7;                                    ! Visible Absorptance

OS:ComponentCost:LineItem,
  {f5edd656-a4ee-4cb9-ab5e-c3c226d04dcd}, ! Handle
  90.1-1999 Nonres B25 Ext Slab Unheated - 8in Slab without Carpet, ! Name
  ,                                       ! Type
  Construction,                           ! Line Item Type
  90.1-1999 Nonres B25 Ext Slab Unheated - 8in Slab without Carpet, ! Item Name
  ,                                       ! Object End Use Key
  ,                                       ! Quantity {dimensionless}
  45.52,                                  ! Material Cost {$}
  CostPerArea;                            ! Material Cost Units

OS:Construction,
  {20e135d7-db5d-4b50-a60a-6defb9c927f1}, ! Handle
  90.1-1999 Nonres B25 Ext Slab Unheated - 8in Slab without Carpet, ! Name
  ,                                       ! Surface Rendering Name
  {aa2b51d7-43a7-477a-b998-4099be5c858d}; ! Layer 1

