
OS:Version,
  {0c88ccb4-3bed-45d5-8f07-a5faa03cbca4}, ! Handle
  0.9.3;                                  ! Version Identifier

OS:Construction,
  {36f7e39a-ec81-4a5d-9814-f3eb29aa6ad4}, ! Handle
  90.1-1999 Res B23 Ext Wall Wood-Framed and Other, ! Name
  ,                                       ! Surface Rendering Name
  {30929d21-6fa3-4917-9d12-41023681fca4}, ! Layer 1
  {fe620085-67da-44d5-9c97-ba7ecb3acdd7}, ! Layer 2
  {b82112d9-dbad-41f7-85d5-9146139b5144}; ! Layer 3

OS:Material,
  {30929d21-6fa3-4917-9d12-41023681fca4}, ! Handle
  Wood Siding,                            ! Name
  MediumSmooth,                           ! Roughness
  0.01,                                   ! Thickness {m}
  0.11,                                   ! Conductivity {W/m-K}
  544.62,                                 ! Density {kg/m3}
  1210,                                   ! Specific Heat {J/kg-K}
  0.9,                                    ! Thermal Absorptance
  0.78,                                   ! Solar Absorptance
  0.78;                                   ! Visible Absorptance

OS:Material,
  {fe620085-67da-44d5-9c97-ba7ecb3acdd7}, ! Handle
  Wall Insulation [13],                   ! Name
  MediumRough,                            ! Roughness
  0.140713,                               ! Thickness {m}
  0.045,                                  ! Conductivity {W/m-K}
  265,                                    ! Density {kg/m3}
  836.8,                                  ! Specific Heat {J/kg-K}
  0.9,                                    ! Thermal Absorptance
  0.7,                                    ! Solar Absorptance
  0.7;                                    ! Visible Absorptance

OS:Material,
  {b82112d9-dbad-41f7-85d5-9146139b5144}, ! Handle
  1/2IN Gypsum,                           ! Name
  Smooth,                                 ! Roughness
  0.01271,                                ! Thickness {m}
  0.16,                                   ! Conductivity {W/m-K}
  784.9,                                  ! Density {kg/m3}
  830,                                    ! Specific Heat {J/kg-K}
  0.9,                                    ! Thermal Absorptance
  0.92,                                   ! Solar Absorptance
  0.92;                                   ! Visible Absorptance

OS:ComponentCost:LineItem,
  {6eab0d06-db95-46d9-9dbf-1c25b52adca5}, ! Handle
  90.1-1999 Res B23 Ext Wall Wood-Framed and Other, ! Name
  ,                                       ! Type
  Construction,                           ! Line Item Type
  90.1-1999 Res B23 Ext Wall Wood-Framed and Other, ! Item Name
  ,                                       ! Object End Use Key
  ,                                       ! Quantity {dimensionless}
  80.638,                                 ! Material Cost {$}
  CostPerArea;                            ! Material Cost Units

