
OS:Version,
  {c828e6db-9e0f-4173-bb0a-aa9a3feafb00}, ! Handle
  0.9.3;                                  ! Version Identifier

OS:Material,
  {831dccfe-3dc0-4618-87b3-6aa31369eee3}, ! Handle
  1/2IN Gypsum,                           ! Name
  Smooth,                                 ! Roughness
  0.01271,                                ! Thickness {m}
  0.16,                                   ! Conductivity {W/m-K}
  784.9,                                  ! Density {kg/m3}
  830,                                    ! Specific Heat {J/kg-K}
  0.9,                                    ! Thermal Absorptance
  0.92,                                   ! Solar Absorptance
  0.92;                                   ! Visible Absorptance

OS:ComponentCost:LineItem,
  {f46f6b26-49df-4786-bc30-fd4f520e0164}, ! Handle
  90.1-1999 Nonres B14 Ext Wall Wood-Framed and Other, ! Name
  ,                                       ! Type
  Construction,                           ! Line Item Type
  90.1-1999 Nonres B14 Ext Wall Wood-Framed and Other, ! Item Name
  ,                                       ! Object End Use Key
  ,                                       ! Quantity {dimensionless}
  73.056,                                 ! Material Cost {$}
  CostPerArea;                            ! Material Cost Units

OS:Material,
  {3c7a45c9-bbcf-4047-8145-866ecea00816}, ! Handle
  Wall Insulation [2],                    ! Name
  MediumRough,                            ! Roughness
  0.0746874,                              ! Thickness {m}
  0.045,                                  ! Conductivity {W/m-K}
  265,                                    ! Density {kg/m3}
  836.8,                                  ! Specific Heat {J/kg-K}
  0.9,                                    ! Thermal Absorptance
  0.7,                                    ! Solar Absorptance
  0.7;                                    ! Visible Absorptance

OS:Construction,
  {e6b75d93-1d16-4406-8576-cb04e90eebab}, ! Handle
  90.1-1999 Nonres B14 Ext Wall Wood-Framed and Other, ! Name
  ,                                       ! Surface Rendering Name
  {d1ec1e3b-a475-41d3-9d0c-3cbc19e51be5}, ! Layer 1
  {3c7a45c9-bbcf-4047-8145-866ecea00816}, ! Layer 2
  {831dccfe-3dc0-4618-87b3-6aa31369eee3}; ! Layer 3

OS:Material,
  {d1ec1e3b-a475-41d3-9d0c-3cbc19e51be5}, ! Handle
  Wood Siding,                            ! Name
  MediumSmooth,                           ! Roughness
  0.01,                                   ! Thickness {m}
  0.11,                                   ! Conductivity {W/m-K}
  544.62,                                 ! Density {kg/m3}
  1210,                                   ! Specific Heat {J/kg-K}
  0.9,                                    ! Thermal Absorptance
  0.78,                                   ! Solar Absorptance
  0.78;                                   ! Visible Absorptance

