
OS:Version,
  {1a4b3c8a-3ef1-4999-bd3f-e8d5b0b72d9d}, ! Handle
  0.9.3;                                  ! Version Identifier

OS:Construction,
  {1de00772-f45f-4041-9f98-bfed27385ae1}, ! Handle
  90.1-1999 Nonres B14 Ext Wall Wood-Framed and Other, ! Name
  ,                                       ! Surface Rendering Name
  {63c54b7b-c01c-4b54-b79c-f59a4f60fed6}, ! Layer 1
  {05fa0afb-0641-4448-bb63-7da44470e4cf}, ! Layer 2
  {af77c72e-8835-489b-a7f2-bc1927af94e1}; ! Layer 3

OS:Material,
  {63c54b7b-c01c-4b54-b79c-f59a4f60fed6}, ! Handle
  Wood Siding,                            ! Name
  MediumSmooth,                           ! Roughness
  0.01,                                   ! Thickness {m}
  0.11,                                   ! Conductivity {W/m-K}
  544.62,                                 ! Density {kg/m3}
  1210,                                   ! Specific Heat {J/kg-K}
  0.9,                                    ! Thermal Absorptance
  0.78,                                   ! Solar Absorptance
  0.78;                                   ! Visible Absorptance

OS:Material,
  {05fa0afb-0641-4448-bb63-7da44470e4cf}, ! Handle
  Wall Insulation [2],                    ! Name
  MediumRough,                            ! Roughness
  0.0746874,                              ! Thickness {m}
  0.045,                                  ! Conductivity {W/m-K}
  265,                                    ! Density {kg/m3}
  836.8,                                  ! Specific Heat {J/kg-K}
  0.9,                                    ! Thermal Absorptance
  0.7,                                    ! Solar Absorptance
  0.7;                                    ! Visible Absorptance

OS:Material,
  {af77c72e-8835-489b-a7f2-bc1927af94e1}, ! Handle
  1/2IN Gypsum,                           ! Name
  Smooth,                                 ! Roughness
  0.01271,                                ! Thickness {m}
  0.16,                                   ! Conductivity {W/m-K}
  784.9,                                  ! Density {kg/m3}
  830,                                    ! Specific Heat {J/kg-K}
  0.9,                                    ! Thermal Absorptance
  0.92,                                   ! Solar Absorptance
  0.92;                                   ! Visible Absorptance

OS:ComponentCost:LineItem,
  {d3873018-68a7-45b3-ada9-622cbefcf919}, ! Handle
  90.1-1999 Nonres B14 Ext Wall Wood-Framed and Other, ! Name
  ,                                       ! Type
  Construction,                           ! Line Item Type
  90.1-1999 Nonres B14 Ext Wall Wood-Framed and Other, ! Item Name
  ,                                       ! Object End Use Key
  ,                                       ! Quantity {dimensionless}
  73.056,                                 ! Material Cost {$}
  CostPerArea;                            ! Material Cost Units

OS:ComponentData,
  {62976839-17ba-44de-8e39-4ad595bef1d5}, ! Handle
  Component Data 1,                       ! Name
  {32b380ef-e23a-4f0c-aacc-1e08c28bc53b}, ! UUID
  {a5b7a856-9186-477f-9aef-b73d088e6bce}, ! Version UUID
  1363981101,                             ! Creation Timestamp
  1363981101,                             ! Version Timestamp
  {1de00772-f45f-4041-9f98-bfed27385ae1}, ! Name of Object 1
  {63c54b7b-c01c-4b54-b79c-f59a4f60fed6}, ! Name of Object 2
  {05fa0afb-0641-4448-bb63-7da44470e4cf}, ! Name of Object 3
  {af77c72e-8835-489b-a7f2-bc1927af94e1}, ! Name of Object 4
  {d3873018-68a7-45b3-ada9-622cbefcf919}; ! Name of Object 5

