
OS:Version,
  {0d82b665-1231-4be3-a2bd-c37c3fbb3556}, ! Handle
  0.9.3;                                  ! Version Identifier

OS:Construction,
  {c94bdbd9-57c4-495a-a2f3-5767a2e358f0}, ! Handle
  Title 24-2005 Nonres 2 Ext Slab Unheated - 8in Slab with Carpet, ! Name
  ,                                       ! Surface Rendering Name
  {33277719-1cd2-45eb-9924-20e00e8bddc9}, ! Layer 1
  {82817316-c97e-4433-9d91-f779575210a0}; ! Layer 2

OS:Material,
  {33277719-1cd2-45eb-9924-20e00e8bddc9}, ! Handle
  MAT-CC05 8 HW CONCRETE,                 ! Name
  Rough,                                  ! Roughness
  0.20321,                                ! Thickness {m}
  1.311,                                  ! Conductivity {W/m-K}
  2240,                                   ! Density {kg/m3}
  836.8,                                  ! Specific Heat {J/kg-K}
  0.9,                                    ! Thermal Absorptance
  0.7,                                    ! Solar Absorptance
  0.7;                                    ! Visible Absorptance

OS:Material:NoMass,
  {82817316-c97e-4433-9d91-f779575210a0}, ! Handle
  CP02 CARPET PAD,                        ! Name
  VeryRough,                              ! Roughness
  0.21648,                                ! Thermal Resistance {m2-K/W}
  0.9,                                    ! Thermal Absorptance
  0.7,                                    ! Solar Absorptance
  0.8;                                    ! Visible Absorptance

OS:ComponentCost:LineItem,
  {8ea5db14-9dfc-47a1-9fb1-0239b358d843}, ! Handle
  Title 24-2005 Nonres 2 Ext Slab Unheated - 8in Slab with Carpet, ! Name
  ,                                       ! Type
  Construction,                           ! Line Item Type
  Title 24-2005 Nonres 2 Ext Slab Unheated - 8in Slab with Carpet, ! Item Name
  ,                                       ! Object End Use Key
  ,                                       ! Quantity {dimensionless}
  45.52,                                  ! Material Cost {$}
  CostPerArea;                            ! Material Cost Units

OS:ComponentData,
  {57172445-74f4-432e-97eb-68f1ce0ee346}, ! Handle
  Component Data 1,                       ! Name
  {30f04f66-09d4-469e-8893-f829f85a7018}, ! UUID
  {5340d998-8055-4340-a808-f554cd05285b}, ! Version UUID
  1363981973,                             ! Creation Timestamp
  1363981973,                             ! Version Timestamp
  {c94bdbd9-57c4-495a-a2f3-5767a2e358f0}, ! Name of Object 1
  {33277719-1cd2-45eb-9924-20e00e8bddc9}, ! Name of Object 2
  {82817316-c97e-4433-9d91-f779575210a0}, ! Name of Object 3
  {8ea5db14-9dfc-47a1-9fb1-0239b358d843}; ! Name of Object 4

