
OS:Version,
  {7e0e0a83-de1c-4ffb-a3fa-1daa0c918ae6}, ! Handle
  0.9.3;                                  ! Version Identifier

OS:WindowMaterial:Glazing,
  {ddae35eb-a91e-4243-8e01-4be7ef669be0}, ! Handle
  Theoretical Glass [166],                ! Name
  SpectralAverage,                        ! Optical Data Type
  ,                                       ! Window Glass Spectral Data Set Name
  0.003,                                  ! Thickness {m}
  0.630903,                               ! Solar Transmittance at Normal Incidence
  0.319097,                               ! Front Side Solar Reflectance at Normal Incidence
  0.319097,                               ! Back Side Solar Reflectance at Normal Incidence
  0.639644,                               ! Visible Transmittance at Normal Incidence
  0.310356,                               ! Front Side Visible Reflectance at Normal Incidence
  0.310356,                               ! Back Side Visible Reflectance at Normal Incidence
  0,                                      ! Infrared Transmittance at Normal Incidence
  0.9,                                    ! Front Side Infrared Hemispherical Emissivity
  0.9,                                    ! Back Side Infrared Hemispherical Emissivity
  0.03026;                                ! Conductivity {W/m-K}

OS:Construction,
  {b4ec1cd2-be5f-4051-8233-167da0665d6b}, ! Handle
  90.1-2004 Res 7A Skylight without Curb, ! Name
  ,                                       ! Surface Rendering Name
  {ddae35eb-a91e-4243-8e01-4be7ef669be0}; ! Layer 1

OS:ComponentCost:LineItem,
  {0223836e-2cfc-4a3e-b70a-ab3c2662f499}, ! Handle
  90.1-2004 Res 7A Skylight without Curb, ! Name
  ,                                       ! Type
  Construction,                           ! Line Item Type
  90.1-2004 Res 7A Skylight without Curb, ! Item Name
  ,                                       ! Object End Use Key
  ,                                       ! Quantity {dimensionless}
  439.606,                                ! Material Cost {$}
  CostPerArea;                            ! Material Cost Units

