
OS:Version,
  {8210fccf-625b-4f4c-a07c-6f0b0f7c785d}, ! Handle
  0.9.3;                                  ! Version Identifier

OS:Material,
  {f1a4c8f9-e39c-4885-ade2-0630ec8b4a7d}, ! Handle
  1IN Stucco,                             ! Name
  Smooth,                                 ! Roughness
  0.0253,                                 ! Thickness {m}
  0.6918,                                 ! Conductivity {W/m-K}
  1858,                                   ! Density {kg/m3}
  837,                                    ! Specific Heat {J/kg-K}
  0.9,                                    ! Thermal Absorptance
  0.92,                                   ! Solar Absorptance
  0.92;                                   ! Visible Absorptance

OS:Material,
  {fa902c39-b00f-4190-ae5e-2a820c4ce32a}, ! Handle
  1/2IN Gypsum,                           ! Name
  Smooth,                                 ! Roughness
  0.01271,                                ! Thickness {m}
  0.16,                                   ! Conductivity {W/m-K}
  784.9,                                  ! Density {kg/m3}
  830,                                    ! Specific Heat {J/kg-K}
  0.9,                                    ! Thermal Absorptance
  0.92,                                   ! Solar Absorptance
  0.92;                                   ! Visible Absorptance

OS:Construction,
  {5480c9ed-99e8-482f-b920-6113b7bd2aaa}, ! Handle
  90.1-1999 Nonres B1 Ext Wall Mass,      ! Name
  ,                                       ! Surface Rendering Name
  {f1a4c8f9-e39c-4885-ade2-0630ec8b4a7d}, ! Layer 1
  {ac36ab88-e7b0-45e8-a198-22b7c8d6af35}, ! Layer 2
  {fa902c39-b00f-4190-ae5e-2a820c4ce32a}; ! Layer 3

OS:Material,
  {ac36ab88-e7b0-45e8-a198-22b7c8d6af35}, ! Handle
  8IN Concrete HW,                        ! Name
  MediumRough,                            ! Roughness
  0.2033,                                 ! Thickness {m}
  1.7296,                                 ! Conductivity {W/m-K}
  2243,                                   ! Density {kg/m3}
  837,                                    ! Specific Heat {J/kg-K}
  0.9,                                    ! Thermal Absorptance
  0.65,                                   ! Solar Absorptance
  0.65;                                   ! Visible Absorptance

OS:ComponentCost:LineItem,
  {c196b1be-ff73-40a4-be91-56c9ec8bfbf9}, ! Handle
  90.1-1999 Nonres B1 Ext Wall Mass,      ! Name
  ,                                       ! Type
  Construction,                           ! Line Item Type
  90.1-1999 Nonres B1 Ext Wall Mass,      ! Item Name
  ,                                       ! Object End Use Key
  ,                                       ! Quantity {dimensionless}
  41.397,                                 ! Material Cost {$}
  CostPerArea;                            ! Material Cost Units

