
OS:Version,
  {9bf8e6b7-20b7-40d7-8adb-80174484adbd}, ! Handle
  0.9.3;                                  ! Version Identifier

OS:Construction,
  {4ba3c6aa-d0ae-4377-9c56-a321c56d672f}, ! Handle
  Title 24-2008 Nonres 2 Attic Floor,     ! Name
  ,                                       ! Surface Rendering Name
  {d0b0b357-056d-49d6-a41c-65b668e56d50}, ! Layer 1
  {2e5108da-00a2-447a-988a-9ec5dc8f354d}, ! Layer 2
  {c06a5704-ca43-40b7-8f7f-d06e21044685}; ! Layer 3

OS:Material,
  {d0b0b357-056d-49d6-a41c-65b668e56d50}, ! Handle
  1/2IN Gypsum Top,                       ! Name
  Smooth,                                 ! Roughness
  0.01271,                                ! Thickness {m}
  0.16,                                   ! Conductivity {W/m-K}
  784.9,                                  ! Density {kg/m3}
  830,                                    ! Specific Heat {J/kg-K}
  0.9,                                    ! Thermal Absorptance
  0.92,                                   ! Solar Absorptance
  0.92;                                   ! Visible Absorptance

OS:Material,
  {2e5108da-00a2-447a-988a-9ec5dc8f354d}, ! Handle
  AtticFloor Insulation [49],             ! Name
  MediumRough,                            ! Roughness
  0.205862,                               ! Thickness {m}
  0.049,                                  ! Conductivity {W/m-K}
  265,                                    ! Density {kg/m3}
  836.8,                                  ! Specific Heat {J/kg-K}
  0.9,                                    ! Thermal Absorptance
  0.7,                                    ! Solar Absorptance
  0.7;                                    ! Visible Absorptance

OS:Material,
  {c06a5704-ca43-40b7-8f7f-d06e21044685}, ! Handle
  1/2IN Gypsum Bottom,                    ! Name
  Smooth,                                 ! Roughness
  0.01271,                                ! Thickness {m}
  0.16,                                   ! Conductivity {W/m-K}
  784.9,                                  ! Density {kg/m3}
  830,                                    ! Specific Heat {J/kg-K}
  0.9,                                    ! Thermal Absorptance
  0.92,                                   ! Solar Absorptance
  0.92;                                   ! Visible Absorptance

OS:ComponentCost:LineItem,
  {31997e0f-6d7c-4dfe-8d5f-a4c24c54aa0a}, ! Handle
  Title 24-2008 Nonres 2 Attic Floor,     ! Name
  ,                                       ! Type
  Construction,                           ! Line Item Type
  Title 24-2008 Nonres 2 Attic Floor,     ! Item Name
  ,                                       ! Object End Use Key
  ,                                       ! Quantity {dimensionless}
  33.117,                                 ! Material Cost {$}
  CostPerArea;                            ! Material Cost Units

OS:ComponentData,
  {0e7e34c7-7059-4e52-b63b-a1193a76860f}, ! Handle
  Component Data 1,                       ! Name
  {470f4bbb-ff49-42c0-91d7-b788185526c8}, ! UUID
  {47270935-e89c-4f82-97c6-99191109170d}, ! Version UUID
  1363981990,                             ! Creation Timestamp
  1363981990,                             ! Version Timestamp
  {4ba3c6aa-d0ae-4377-9c56-a321c56d672f}, ! Name of Object 1
  {d0b0b357-056d-49d6-a41c-65b668e56d50}, ! Name of Object 2
  {2e5108da-00a2-447a-988a-9ec5dc8f354d}, ! Name of Object 3
  {c06a5704-ca43-40b7-8f7f-d06e21044685}, ! Name of Object 4
  {31997e0f-6d7c-4dfe-8d5f-a4c24c54aa0a}; ! Name of Object 5

