
OS:Version,
  {d8db1053-02a9-4eef-858b-c55457a51dc4}, ! Handle
  0.9.3;                                  ! Version Identifier

OS:Construction,
  {8042917c-26cb-4362-ab43-d5fec9444620}, ! Handle
  Title 24-2008 Nonres 2 Attic Floor,     ! Name
  ,                                       ! Surface Rendering Name
  {47d21b29-50cb-4dcd-a28f-e26b26187f2f}, ! Layer 1
  {835d287f-9f09-47ae-9516-19aa9e52e9e9}, ! Layer 2
  {957bf7ad-c62f-4a28-9739-af5f044f83e3}; ! Layer 3

OS:Material,
  {47d21b29-50cb-4dcd-a28f-e26b26187f2f}, ! Handle
  1/2IN Gypsum Top,                       ! Name
  Smooth,                                 ! Roughness
  0.01271,                                ! Thickness {m}
  0.16,                                   ! Conductivity {W/m-K}
  784.9,                                  ! Density {kg/m3}
  830,                                    ! Specific Heat {J/kg-K}
  0.9,                                    ! Thermal Absorptance
  0.92,                                   ! Solar Absorptance
  0.92;                                   ! Visible Absorptance

OS:Material,
  {835d287f-9f09-47ae-9516-19aa9e52e9e9}, ! Handle
  AtticFloor Insulation [49],             ! Name
  MediumRough,                            ! Roughness
  0.205862,                               ! Thickness {m}
  0.049,                                  ! Conductivity {W/m-K}
  265,                                    ! Density {kg/m3}
  836.8,                                  ! Specific Heat {J/kg-K}
  0.9,                                    ! Thermal Absorptance
  0.7,                                    ! Solar Absorptance
  0.7;                                    ! Visible Absorptance

OS:Material,
  {957bf7ad-c62f-4a28-9739-af5f044f83e3}, ! Handle
  1/2IN Gypsum Bottom,                    ! Name
  Smooth,                                 ! Roughness
  0.01271,                                ! Thickness {m}
  0.16,                                   ! Conductivity {W/m-K}
  784.9,                                  ! Density {kg/m3}
  830,                                    ! Specific Heat {J/kg-K}
  0.9,                                    ! Thermal Absorptance
  0.92,                                   ! Solar Absorptance
  0.92;                                   ! Visible Absorptance

OS:ComponentCost:LineItem,
  {38de9893-a09b-45aa-ab62-41b047f16928}, ! Handle
  Title 24-2008 Nonres 2 Attic Floor,     ! Name
  ,                                       ! Type
  Construction,                           ! Line Item Type
  Title 24-2008 Nonres 2 Attic Floor,     ! Item Name
  ,                                       ! Object End Use Key
  ,                                       ! Quantity {dimensionless}
  33.117,                                 ! Material Cost {$}
  CostPerArea;                            ! Material Cost Units

