
OS:Version,
  {8f525825-a1fe-429e-b577-9dbaa25987e6}, ! Handle
  0.9.3;                                  ! Version Identifier

OS:Construction,
  {422d10ee-c34f-4502-a42e-c61e68195166}, ! Handle
  Title 24-2008 Nonres 1 Ext Wall Mass,   ! Name
  ,                                       ! Surface Rendering Name
  {f2ed1370-44ae-4073-97de-3aa8ea550eb2}, ! Layer 1
  {d2f75139-4a5f-404a-a22e-cec87ce7a03c}, ! Layer 2
  {b7665d3f-1524-4892-9dfb-7227c7a9114c}, ! Layer 3
  {99afc17f-fd6b-4f5b-9c20-02f60f3a107f}; ! Layer 4

OS:Material,
  {f2ed1370-44ae-4073-97de-3aa8ea550eb2}, ! Handle
  1IN Stucco,                             ! Name
  Smooth,                                 ! Roughness
  0.0253,                                 ! Thickness {m}
  0.6918,                                 ! Conductivity {W/m-K}
  1858,                                   ! Density {kg/m3}
  837,                                    ! Specific Heat {J/kg-K}
  0.9,                                    ! Thermal Absorptance
  0.92,                                   ! Solar Absorptance
  0.92;                                   ! Visible Absorptance

OS:Material,
  {d2f75139-4a5f-404a-a22e-cec87ce7a03c}, ! Handle
  8IN Concrete HW [3],                    ! Name
  MediumRough,                            ! Roughness
  0.107822,                               ! Thickness {m}
  1.7296,                                 ! Conductivity {W/m-K}
  2243,                                   ! Density {kg/m3}
  837,                                    ! Specific Heat {J/kg-K}
  0.9,                                    ! Thermal Absorptance
  0.65,                                   ! Solar Absorptance
  0.65;                                   ! Visible Absorptance

OS:Material,
  {b7665d3f-1524-4892-9dfb-7227c7a9114c}, ! Handle
  Wall Insulation [158],                  ! Name
  MediumRough,                            ! Roughness
  0.0509,                                 ! Thickness {m}
  0.0432,                                 ! Conductivity {W/m-K}
  91,                                     ! Density {kg/m3}
  837,                                    ! Specific Heat {J/kg-K}
  0.9,                                    ! Thermal Absorptance
  0.5,                                    ! Solar Absorptance
  0.5;                                    ! Visible Absorptance

OS:Material,
  {99afc17f-fd6b-4f5b-9c20-02f60f3a107f}, ! Handle
  1/2IN Gypsum,                           ! Name
  Smooth,                                 ! Roughness
  0.01271,                                ! Thickness {m}
  0.16,                                   ! Conductivity {W/m-K}
  784.9,                                  ! Density {kg/m3}
  830,                                    ! Specific Heat {J/kg-K}
  0.9,                                    ! Thermal Absorptance
  0.92,                                   ! Solar Absorptance
  0.92;                                   ! Visible Absorptance

OS:ComponentCost:LineItem,
  {127a633a-64b7-48fc-84ef-81f10c4abe6d}, ! Handle
  Title 24-2008 Nonres 1 Ext Wall Mass,   ! Name
  ,                                       ! Type
  Construction,                           ! Line Item Type
  Title 24-2008 Nonres 1 Ext Wall Mass,   ! Item Name
  ,                                       ! Object End Use Key
  ,                                       ! Quantity {dimensionless}
  62.618,                                 ! Material Cost {$}
  CostPerArea;                            ! Material Cost Units

OS:ComponentData,
  {96e971d9-7c9c-43fa-bd20-aba1176a5d5c}, ! Handle
  Component Data 1,                       ! Name
  {f7e63dbf-1147-4aea-aa93-b42a710fbe7c}, ! UUID
  {e67a09b0-1a77-4ddc-8c20-fc158229dea6}, ! Version UUID
  1363981985,                             ! Creation Timestamp
  1363981985,                             ! Version Timestamp
  {422d10ee-c34f-4502-a42e-c61e68195166}, ! Name of Object 1
  {f2ed1370-44ae-4073-97de-3aa8ea550eb2}, ! Name of Object 2
  {d2f75139-4a5f-404a-a22e-cec87ce7a03c}, ! Name of Object 3
  {b7665d3f-1524-4892-9dfb-7227c7a9114c}, ! Name of Object 4
  {99afc17f-fd6b-4f5b-9c20-02f60f3a107f}, ! Name of Object 5
  {127a633a-64b7-48fc-84ef-81f10c4abe6d}; ! Name of Object 6

