
OS:Version,
  {e23330d6-1812-498d-a803-4f9a34bce10f}, ! Handle
  0.9.3;                                  ! Version Identifier

OS:Material,
  {981abc37-e9ee-487f-883d-b0f043a86a6b}, ! Handle
  8IN Concrete HW [3],                    ! Name
  MediumRough,                            ! Roughness
  0.107822,                               ! Thickness {m}
  1.7296,                                 ! Conductivity {W/m-K}
  2243,                                   ! Density {kg/m3}
  837,                                    ! Specific Heat {J/kg-K}
  0.9,                                    ! Thermal Absorptance
  0.65,                                   ! Solar Absorptance
  0.65;                                   ! Visible Absorptance

OS:Construction,
  {b6d0664f-18dc-4aab-92bc-0d8b1e6471a3}, ! Handle
  Title 24-2008 Nonres 1 Ext Wall Mass,   ! Name
  ,                                       ! Surface Rendering Name
  {0a8c8373-6eb2-4d28-a899-e4669b8cfd49}, ! Layer 1
  {981abc37-e9ee-487f-883d-b0f043a86a6b}, ! Layer 2
  {1e261718-cee1-47b7-9793-7acb575e4508}, ! Layer 3
  {954517cb-8313-4160-bbac-cc26cf3f681b}; ! Layer 4

OS:Material,
  {0a8c8373-6eb2-4d28-a899-e4669b8cfd49}, ! Handle
  1IN Stucco,                             ! Name
  Smooth,                                 ! Roughness
  0.0253,                                 ! Thickness {m}
  0.6918,                                 ! Conductivity {W/m-K}
  1858,                                   ! Density {kg/m3}
  837,                                    ! Specific Heat {J/kg-K}
  0.9,                                    ! Thermal Absorptance
  0.92,                                   ! Solar Absorptance
  0.92;                                   ! Visible Absorptance

OS:Material,
  {1e261718-cee1-47b7-9793-7acb575e4508}, ! Handle
  Wall Insulation [158],                  ! Name
  MediumRough,                            ! Roughness
  0.0509,                                 ! Thickness {m}
  0.0432,                                 ! Conductivity {W/m-K}
  91,                                     ! Density {kg/m3}
  837,                                    ! Specific Heat {J/kg-K}
  0.9,                                    ! Thermal Absorptance
  0.5,                                    ! Solar Absorptance
  0.5;                                    ! Visible Absorptance

OS:Material,
  {954517cb-8313-4160-bbac-cc26cf3f681b}, ! Handle
  1/2IN Gypsum,                           ! Name
  Smooth,                                 ! Roughness
  0.01271,                                ! Thickness {m}
  0.16,                                   ! Conductivity {W/m-K}
  784.9,                                  ! Density {kg/m3}
  830,                                    ! Specific Heat {J/kg-K}
  0.9,                                    ! Thermal Absorptance
  0.92,                                   ! Solar Absorptance
  0.92;                                   ! Visible Absorptance

OS:ComponentCost:LineItem,
  {2c1e41dd-1d24-45c5-9aae-c7ac75ba86b6}, ! Handle
  Title 24-2008 Nonres 1 Ext Wall Mass,   ! Name
  ,                                       ! Type
  Construction,                           ! Line Item Type
  Title 24-2008 Nonres 1 Ext Wall Mass,   ! Item Name
  ,                                       ! Object End Use Key
  ,                                       ! Quantity {dimensionless}
  62.618,                                 ! Material Cost {$}
  CostPerArea;                            ! Material Cost Units

