
OS:Version,
  {feb468fc-72c2-4f0a-a141-2fa1f1be9c7f}, ! Handle
  0.9.3;                                  ! Version Identifier

OS:Material,
  {8ef8525a-0330-483e-a2d2-40b55108dbe4}, ! Handle
  MAT-CC05 8 HW CONCRETE,                 ! Name
  Rough,                                  ! Roughness
  0.20321,                                ! Thickness {m}
  1.311,                                  ! Conductivity {W/m-K}
  2240,                                   ! Density {kg/m3}
  836.8,                                  ! Specific Heat {J/kg-K}
  0.9,                                    ! Thermal Absorptance
  0.7,                                    ! Solar Absorptance
  0.7;                                    ! Visible Absorptance

OS:Construction,
  {65f6b5a8-be82-435c-8a55-b7014bcc2bdc}, ! Handle
  90.1-2007 Nonres 8A Ext Slab Unheated - 8in Slab without Carpet, ! Name
  ,                                       ! Surface Rendering Name
  {8ef8525a-0330-483e-a2d2-40b55108dbe4}; ! Layer 1

OS:ComponentCost:LineItem,
  {7bbe7740-a960-4a60-b35f-84d869b46cee}, ! Handle
  90.1-2007 Nonres 8A Ext Slab Unheated - 8in Slab without Carpet, ! Name
  ,                                       ! Type
  Construction,                           ! Line Item Type
  90.1-2007 Nonres 8A Ext Slab Unheated - 8in Slab without Carpet, ! Item Name
  ,                                       ! Object End Use Key
  ,                                       ! Quantity {dimensionless}
  45.52,                                  ! Material Cost {$}
  CostPerArea;                            ! Material Cost Units

