
! 
OS:Version,
  {9c37d538-db0d-4a47-9850-5bede7e76bd5}, !- Handle
  1.13.0;                                 !- Version Identifier


! {"nombreProductoCorto": "CLIMALIT PLUS con COOL LITE SKN 176 F2 6 (16 argon90%) 44.2", "codigoEAN": "", "handle": "6ca15151-6cc6-4377-9e63-c3a55632b542", "g": 0.37, "tV": 0.69, "u": 1.0, "nombreProducto": "CLIMALIT PLUS con COOL LITE SKN 176 F2 6 (16 argon90%) 44.2\nU:1.0 W/m2K - g:0.37 - Tv: 0.69"}
OS:WindowMaterial:SimpleGlazingSystem,
  {6ca15151-6cc6-4377-9e63-c3a55632b542}, !- Handle
  CLIMALIT PLUS con COOL LITE SKN 176 F2 6 (16 argon90%) 44.2, !- Name
  1.0,                                    !- U-Factor {W/m2-K}
  0.37,                                    !- Solar Heat Gain Coefficient
  0.69;                                    !- Visible Transmittance     
  
  
OS:Construction,
  {140d6953-e7cc-4c9c-b2a6-61fe378ff6fb}, !- Handle
  CLIMALIT PLUS con COOL LITE SKN 176 F2 6 (16 argon90%) 44.2,                         !- Name
  ,                                       !- Surface Rendering Name
  {6ca15151-6cc6-4377-9e63-c3a55632b542}; !- Layer 1  

