
OS:Version,
  {efcc1572-0c79-42cb-8c21-10c21cb00200}, ! Handle
  0.9.3;                                  ! Version Identifier

OS:Construction,
  {bfbe295e-b095-4a0d-be88-52f61538cd7e}, ! Handle
  90.1-1999 Nonres B23 Window Fixed,      ! Name
  ,                                       ! Surface Rendering Name
  {2ab4d45a-13ee-43eb-aac6-7c5a1021ca15}; ! Layer 1

OS:WindowMaterial:Glazing,
  {2ab4d45a-13ee-43eb-aac6-7c5a1021ca15}, ! Handle
  Theoretical Glass [44],                 ! Name
  SpectralAverage,                        ! Optical Data Type
  ,                                       ! Window Glass Spectral Data Set Name
  0.003,                                  ! Thickness {m}
  0.455617,                               ! Solar Transmittance at Normal Incidence
  0.494383,                               ! Front Side Solar Reflectance at Normal Incidence
  0.494383,                               ! Back Side Solar Reflectance at Normal Incidence
  0.493419,                               ! Visible Transmittance at Normal Incidence
  0.456581,                               ! Front Side Visible Reflectance at Normal Incidence
  0.456581,                               ! Back Side Visible Reflectance at Normal Incidence
  0,                                      ! Infrared Transmittance at Normal Incidence
  0.9,                                    ! Front Side Infrared Hemispherical Emissivity
  0.9,                                    ! Back Side Infrared Hemispherical Emissivity
  0.00882224;                             ! Conductivity {W/m-K}

OS:ComponentCost:LineItem,
  {84c3d754-624e-4bfe-abb2-67d8f9928ac4}, ! Handle
  90.1-1999 Nonres B23 Window Fixed,      ! Name
  ,                                       ! Type
  Construction,                           ! Line Item Type
  90.1-1999 Nonres B23 Window Fixed,      ! Item Name
  ,                                       ! Object End Use Key
  ,                                       ! Quantity {dimensionless}
  619.19,                                 ! Material Cost {$}
  CostPerArea;                            ! Material Cost Units

OS:ComponentData,
  {2b4591b6-e6b2-4b27-b515-657c60230f38}, ! Handle
  Component Data 1,                       ! Name
  {77f10ec8-c184-47f0-8a50-f9850d981f4a}, ! UUID
  {722bed62-d674-486f-b756-7dc0c6a66fad}, ! Version UUID
  1363981146,                             ! Creation Timestamp
  1363981146,                             ! Version Timestamp
  {bfbe295e-b095-4a0d-be88-52f61538cd7e}, ! Name of Object 1
  {2ab4d45a-13ee-43eb-aac6-7c5a1021ca15}, ! Name of Object 2
  {84c3d754-624e-4bfe-abb2-67d8f9928ac4}; ! Name of Object 3

