
OS:Version,
  {18fd8597-b49f-4e1e-ac1d-986a35169893}, ! Handle
  0.9.3;                                  ! Version Identifier

OS:ComponentCost:LineItem,
  {be420f89-f900-44b2-8d97-13b76915277d}, ! Handle
  90.1-2001 Nonres B3 Roof IEAD,          ! Name
  ,                                       ! Type
  Construction,                           ! Line Item Type
  90.1-2001 Nonres B3 Roof IEAD,          ! Item Name
  ,                                       ! Object End Use Key
  ,                                       ! Quantity {dimensionless}
  49.208,                                 ! Material Cost {$}
  CostPerArea;                            ! Material Cost Units

OS:Material,
  {a4c591c7-528f-45c3-97e4-f3846fa9741c}, ! Handle
  Metal Decking,                          ! Name
  MediumSmooth,                           ! Roughness
  0.001524,                               ! Thickness {m}
  45.006,                                 ! Conductivity {W/m-K}
  7680,                                   ! Density {kg/m3}
  418.4,                                  ! Specific Heat {J/kg-K}
  0.9,                                    ! Thermal Absorptance
  0.7,                                    ! Solar Absorptance
  0.3;                                    ! Visible Absorptance

OS:Material,
  {5c88699e-b0b9-4f04-9f3b-1c4faa1bbd0d}, ! Handle
  Roof Insulation,                        ! Name
  MediumRough,                            ! Roughness
  0.124958,                               ! Thickness {m}
  0.049,                                  ! Conductivity {W/m-K}
  265,                                    ! Density {kg/m3}
  836.8,                                  ! Specific Heat {J/kg-K}
  0.9,                                    ! Thermal Absorptance
  0.7,                                    ! Solar Absorptance
  0.7;                                    ! Visible Absorptance

OS:Material,
  {c8f9cf9a-900a-4fd2-9452-985cc602de36}, ! Handle
  Roof Membrane,                          ! Name
  VeryRough,                              ! Roughness
  0.0095,                                 ! Thickness {m}
  0.16,                                   ! Conductivity {W/m-K}
  1121.29,                                ! Density {kg/m3}
  1460,                                   ! Specific Heat {J/kg-K}
  0.9,                                    ! Thermal Absorptance
  0.7,                                    ! Solar Absorptance
  0.7;                                    ! Visible Absorptance

OS:Construction,
  {81b345e6-e6a9-443d-916f-08a3b0f751af}, ! Handle
  90.1-2001 Nonres B3 Roof IEAD,          ! Name
  ,                                       ! Surface Rendering Name
  {c8f9cf9a-900a-4fd2-9452-985cc602de36}, ! Layer 1
  {5c88699e-b0b9-4f04-9f3b-1c4faa1bbd0d}, ! Layer 2
  {a4c591c7-528f-45c3-97e4-f3846fa9741c}; ! Layer 3

