
OS:Version,
  {35d74a44-59f1-4ee3-b752-8ca01a927d56}, ! Handle
  0.9.3;                                  ! Version Identifier

OS:Construction,
  {9aee677b-7e33-4cbe-aa4f-b0f30d6215be}, ! Handle
  90.1-2001 Nonres B7 Ext Wall Wood-Framed and Other, ! Name
  ,                                       ! Surface Rendering Name
  {eabc0da0-61b6-4db5-81bb-47859170b96f}, ! Layer 1
  {c4e8f74c-4299-43a2-b8cd-9534d1d49ab8}, ! Layer 2
  {892772f7-a1c9-4d97-9fce-0f9f51f38b8f}; ! Layer 3

OS:Material,
  {eabc0da0-61b6-4db5-81bb-47859170b96f}, ! Handle
  Wood Siding,                            ! Name
  MediumSmooth,                           ! Roughness
  0.01,                                   ! Thickness {m}
  0.11,                                   ! Conductivity {W/m-K}
  544.62,                                 ! Density {kg/m3}
  1210,                                   ! Specific Heat {J/kg-K}
  0.9,                                    ! Thermal Absorptance
  0.78,                                   ! Solar Absorptance
  0.78;                                   ! Visible Absorptance

OS:Material,
  {c4e8f74c-4299-43a2-b8cd-9534d1d49ab8}, ! Handle
  Wall Insulation [2],                    ! Name
  MediumRough,                            ! Roughness
  0.0746874,                              ! Thickness {m}
  0.045,                                  ! Conductivity {W/m-K}
  265,                                    ! Density {kg/m3}
  836.8,                                  ! Specific Heat {J/kg-K}
  0.9,                                    ! Thermal Absorptance
  0.7,                                    ! Solar Absorptance
  0.7;                                    ! Visible Absorptance

OS:Material,
  {892772f7-a1c9-4d97-9fce-0f9f51f38b8f}, ! Handle
  1/2IN Gypsum,                           ! Name
  Smooth,                                 ! Roughness
  0.01271,                                ! Thickness {m}
  0.16,                                   ! Conductivity {W/m-K}
  784.9,                                  ! Density {kg/m3}
  830,                                    ! Specific Heat {J/kg-K}
  0.9,                                    ! Thermal Absorptance
  0.92,                                   ! Solar Absorptance
  0.92;                                   ! Visible Absorptance

OS:ComponentCost:LineItem,
  {d1554967-b175-4374-bfb6-17168e14f2d1}, ! Handle
  90.1-2001 Nonres B7 Ext Wall Wood-Framed and Other, ! Name
  ,                                       ! Type
  Construction,                           ! Line Item Type
  90.1-2001 Nonres B7 Ext Wall Wood-Framed and Other, ! Item Name
  ,                                       ! Object End Use Key
  ,                                       ! Quantity {dimensionless}
  73.056,                                 ! Material Cost {$}
  CostPerArea;                            ! Material Cost Units

