
OS:Version,
  {64059142-dbce-4e56-a3d1-597b463e0613}, ! Handle
  0.9.3;                                  ! Version Identifier

OS:Material,
  {f8c62185-c3bb-4ee2-8ed8-e580c66859e7}, ! Handle
  Roof Insulation [5],                    ! Name
  MediumRough,                            ! Roughness
  0.286906,                               ! Thickness {m}
  0.049,                                  ! Conductivity {W/m-K}
  265,                                    ! Density {kg/m3}
  836.8,                                  ! Specific Heat {J/kg-K}
  0.9,                                    ! Thermal Absorptance
  0.7,                                    ! Solar Absorptance
  0.7;                                    ! Visible Absorptance

OS:Material,
  {e2f585e5-a13f-488f-b239-44b38e992b2d}, ! Handle
  1IN Wood Decking,                       ! Name
  MediumSmooth,                           ! Roughness
  0.0254,                                 ! Thickness {m}
  0.1211,                                 ! Conductivity {W/m-K}
  593,                                    ! Density {kg/m3}
  2510,                                   ! Specific Heat {J/kg-K}
  0.9,                                    ! Thermal Absorptance
  0.78,                                   ! Solar Absorptance
  0.78;                                   ! Visible Absorptance

OS:ComponentCost:LineItem,
  {20348142-4512-4555-a56d-89e0e94b3230}, ! Handle
  90.1-1999 Res B8 Roof Attic and Other,  ! Name
  ,                                       ! Type
  Construction,                           ! Line Item Type
  90.1-1999 Res B8 Roof Attic and Other,  ! Item Name
  ,                                       ! Object End Use Key
  ,                                       ! Quantity {dimensionless}
  34.757,                                 ! Material Cost {$}
  CostPerArea;                            ! Material Cost Units

OS:Material,
  {77413769-6e4e-4973-bc7a-0acd51968949}, ! Handle
  1/2IN Gypsum,                           ! Name
  Smooth,                                 ! Roughness
  0.01271,                                ! Thickness {m}
  0.16,                                   ! Conductivity {W/m-K}
  784.9,                                  ! Density {kg/m3}
  830,                                    ! Specific Heat {J/kg-K}
  0.9,                                    ! Thermal Absorptance
  0.92,                                   ! Solar Absorptance
  0.92;                                   ! Visible Absorptance

OS:Material,
  {2d6be3c4-37e8-439e-9470-2de77f526178}, ! Handle
  Wood Shingles,                          ! Name
  VeryRough,                              ! Roughness
  0.0178,                                 ! Thickness {m}
  0.115,                                  ! Conductivity {W/m-K}
  513,                                    ! Density {kg/m3}
  1255,                                   ! Specific Heat {J/kg-K}
  0.9,                                    ! Thermal Absorptance
  0.78,                                   ! Solar Absorptance
  0.78;                                   ! Visible Absorptance

OS:Construction,
  {f5c45f25-240c-4d13-bf04-6464e4555149}, ! Handle
  90.1-1999 Res B8 Roof Attic and Other,  ! Name
  ,                                       ! Surface Rendering Name
  {2d6be3c4-37e8-439e-9470-2de77f526178}, ! Layer 1
  {e2f585e5-a13f-488f-b239-44b38e992b2d}, ! Layer 2
  {f8c62185-c3bb-4ee2-8ed8-e580c66859e7}, ! Layer 3
  {77413769-6e4e-4973-bc7a-0acd51968949}; ! Layer 4

