
OS:Version,
  {929604bc-0b8b-462a-86bd-78e60b480496}, ! Handle
  0.9.3;                                  ! Version Identifier

OS:Construction,
  {511b86de-752c-4841-98e5-9fb2ce758341}, ! Handle
  189.1-2009 Res 4B Window Metal framing entrance door, ! Name
  ,                                       ! Surface Rendering Name
  {cece0407-9f38-40bb-ae4e-829650ab0dbd}; ! Layer 1

OS:WindowMaterial:Glazing,
  {cece0407-9f38-40bb-ae4e-829650ab0dbd}, ! Handle
  Theoretical Glass [225],                ! Name
  SpectralAverage,                        ! Optical Data Type
  ,                                       ! Window Glass Spectral Data Set Name
  0.003,                                  ! Thickness {m}
  0.38364,                                ! Solar Transmittance at Normal Incidence
  0.56636,                                ! Front Side Solar Reflectance at Normal Incidence
  0.56636,                                ! Back Side Solar Reflectance at Normal Incidence
  0.507883,                               ! Visible Transmittance at Normal Incidence
  0.442117,                               ! Front Side Visible Reflectance at Normal Incidence
  0.442117,                               ! Back Side Visible Reflectance at Normal Incidence
  0,                                      ! Infrared Transmittance at Normal Incidence
  0.9,                                    ! Front Side Infrared Hemispherical Emissivity
  0.9,                                    ! Back Side Infrared Hemispherical Emissivity
  0.0414988;                              ! Conductivity {W/m-K}

OS:ComponentCost:LineItem,
  {9b55d85b-cbb6-4ef1-8dc1-cc3159f30699}, ! Handle
  189.1-2009 Res 4B Window Metal framing entrance door, ! Name
  ,                                       ! Type
  Construction,                           ! Line Item Type
  189.1-2009 Res 4B Window Metal framing entrance door, ! Item Name
  ,                                       ! Object End Use Key
  ,                                       ! Quantity {dimensionless}
  512.02,                                 ! Material Cost {$}
  CostPerArea;                            ! Material Cost Units

