
OS:Version,
  {46ca4f81-f308-4924-83e2-286a24801bb8}, ! Handle
  0.9.3;                                  ! Version Identifier

OS:Construction,
  {44bf78cf-ff5d-4a9d-91e0-136d21fd1115}, ! Handle
  189.1-2009 Res 4B Window Metal framing entrance door, ! Name
  ,                                       ! Surface Rendering Name
  {a85c1363-b08e-4182-a880-fff538fc6511}; ! Layer 1

OS:WindowMaterial:Glazing,
  {a85c1363-b08e-4182-a880-fff538fc6511}, ! Handle
  Theoretical Glass [225],                ! Name
  SpectralAverage,                        ! Optical Data Type
  ,                                       ! Window Glass Spectral Data Set Name
  0.003,                                  ! Thickness {m}
  0.38364,                                ! Solar Transmittance at Normal Incidence
  0.56636,                                ! Front Side Solar Reflectance at Normal Incidence
  0.56636,                                ! Back Side Solar Reflectance at Normal Incidence
  0.507883,                               ! Visible Transmittance at Normal Incidence
  0.442117,                               ! Front Side Visible Reflectance at Normal Incidence
  0.442117,                               ! Back Side Visible Reflectance at Normal Incidence
  0,                                      ! Infrared Transmittance at Normal Incidence
  0.9,                                    ! Front Side Infrared Hemispherical Emissivity
  0.9,                                    ! Back Side Infrared Hemispherical Emissivity
  0.0414988;                              ! Conductivity {W/m-K}

OS:ComponentCost:LineItem,
  {26ed695a-0094-43f7-88e7-e2208fd44e67}, ! Handle
  189.1-2009 Res 4B Window Metal framing entrance door, ! Name
  ,                                       ! Type
  Construction,                           ! Line Item Type
  189.1-2009 Res 4B Window Metal framing entrance door, ! Item Name
  ,                                       ! Object End Use Key
  ,                                       ! Quantity {dimensionless}
  512.02,                                 ! Material Cost {$}
  CostPerArea;                            ! Material Cost Units

OS:ComponentData,
  {b8a8b1a3-0b26-4136-baed-1ee074d6cee1}, ! Handle
  Component Data 1,                       ! Name
  {4e887e32-6db5-47d6-b98a-2023a739c072}, ! UUID
  {cdd06d27-d680-4c9a-a434-b47e0b62f203}, ! Version UUID
  1363980974,                             ! Creation Timestamp
  1363980974,                             ! Version Timestamp
  {44bf78cf-ff5d-4a9d-91e0-136d21fd1115}, ! Name of Object 1
  {a85c1363-b08e-4182-a880-fff538fc6511}, ! Name of Object 2
  {26ed695a-0094-43f7-88e7-e2208fd44e67}; ! Name of Object 3

