
OS:Version,
  {dc2c4fd3-2baa-409a-87bb-d7aae9d42724}, ! Handle
  0.9.3;                                  ! Version Identifier

OS:Material,
  {8c9c1cdd-0821-4e0e-b578-f410379b1358}, ! Handle
  Roof Membrane,                          ! Name
  VeryRough,                              ! Roughness
  0.0095,                                 ! Thickness {m}
  0.16,                                   ! Conductivity {W/m-K}
  1121.29,                                ! Density {kg/m3}
  1460,                                   ! Specific Heat {J/kg-K}
  0.9,                                    ! Thermal Absorptance
  0.7,                                    ! Solar Absorptance
  0.7;                                    ! Visible Absorptance

OS:Material,
  {974095bb-c1ca-4739-be2d-5bd4bff76749}, ! Handle
  Metal Decking,                          ! Name
  MediumSmooth,                           ! Roughness
  0.001524,                               ! Thickness {m}
  45.006,                                 ! Conductivity {W/m-K}
  7680,                                   ! Density {kg/m3}
  418.4,                                  ! Specific Heat {J/kg-K}
  0.9,                                    ! Thermal Absorptance
  0.7,                                    ! Solar Absorptance
  0.3;                                    ! Visible Absorptance

OS:Construction,
  {e513592e-80b1-4687-aa9d-80baa799fc39}, ! Handle
  90.1-1999 Res B6 Roof IEAD,             ! Name
  ,                                       ! Surface Rendering Name
  {8c9c1cdd-0821-4e0e-b578-f410379b1358}, ! Layer 1
  {818ceb3f-933d-414a-a0cd-f872ee9e6a41}, ! Layer 2
  {974095bb-c1ca-4739-be2d-5bd4bff76749}; ! Layer 3

OS:Material,
  {818ceb3f-933d-414a-a0cd-f872ee9e6a41}, ! Handle
  Roof Insulation,                        ! Name
  MediumRough,                            ! Roughness
  0.124958,                               ! Thickness {m}
  0.049,                                  ! Conductivity {W/m-K}
  265,                                    ! Density {kg/m3}
  836.8,                                  ! Specific Heat {J/kg-K}
  0.9,                                    ! Thermal Absorptance
  0.7,                                    ! Solar Absorptance
  0.7;                                    ! Visible Absorptance

OS:ComponentCost:LineItem,
  {f2803652-1c14-4196-a241-9b9d38161a3f}, ! Handle
  90.1-1999 Res B6 Roof IEAD,             ! Name
  ,                                       ! Type
  Construction,                           ! Line Item Type
  90.1-1999 Res B6 Roof IEAD,             ! Item Name
  ,                                       ! Object End Use Key
  ,                                       ! Quantity {dimensionless}
  49.208,                                 ! Material Cost {$}
  CostPerArea;                            ! Material Cost Units

