
OS:Version,
  {f34d5880-6142-4780-ae4d-07ef9dd49ed5}, ! Handle
  0.9.3;                                  ! Version Identifier

OS:Construction,
  {1c82e627-5e8f-42e0-a119-70d086dd38f4}, ! Handle
  189.1-2009 Res 7A Window Metal framing all other, ! Name
  ,                                       ! Surface Rendering Name
  {434b6061-7cc7-4e8e-8130-1a43e3cb1377}; ! Layer 1

OS:WindowMaterial:Glazing,
  {434b6061-7cc7-4e8e-8130-1a43e3cb1377}, ! Handle
  Theoretical Glass [221],                ! Name
  SpectralAverage,                        ! Optical Data Type
  ,                                       ! Window Glass Spectral Data Set Name
  0.003,                                  ! Thickness {m}
  0.429551,                               ! Solar Transmittance at Normal Incidence
  0.520449,                               ! Front Side Solar Reflectance at Normal Incidence
  0.520449,                               ! Back Side Solar Reflectance at Normal Incidence
  0.450308,                               ! Visible Transmittance at Normal Incidence
  0.499692,                               ! Front Side Visible Reflectance at Normal Incidence
  0.499692,                               ! Back Side Visible Reflectance at Normal Incidence
  0,                                      ! Infrared Transmittance at Normal Incidence
  0.9,                                    ! Front Side Infrared Hemispherical Emissivity
  0.9,                                    ! Back Side Infrared Hemispherical Emissivity
  0.00893994;                             ! Conductivity {W/m-K}

OS:ComponentCost:LineItem,
  {87c5bf55-9a5f-413f-b5d6-0f578ed8d751}, ! Handle
  189.1-2009 Res 7A Window Metal framing all other, ! Name
  ,                                       ! Type
  Construction,                           ! Line Item Type
  189.1-2009 Res 7A Window Metal framing all other, ! Item Name
  ,                                       ! Object End Use Key
  ,                                       ! Quantity {dimensionless}
  508.362,                                ! Material Cost {$}
  CostPerArea;                            ! Material Cost Units

