
OS:Version,
  {bbae04c8-0413-4eec-954e-33941c0a0595}, ! Handle
  0.9.3;                                  ! Version Identifier

OS:Construction,
  {47aa070c-8e73-4872-877a-bd198a68577b}, ! Handle
  189.1-2009 Res 7A Window Metal framing all other, ! Name
  ,                                       ! Surface Rendering Name
  {da9acae8-3253-4673-9b45-07602cbe1ccb}; ! Layer 1

OS:WindowMaterial:Glazing,
  {da9acae8-3253-4673-9b45-07602cbe1ccb}, ! Handle
  Theoretical Glass [221],                ! Name
  SpectralAverage,                        ! Optical Data Type
  ,                                       ! Window Glass Spectral Data Set Name
  0.003,                                  ! Thickness {m}
  0.429551,                               ! Solar Transmittance at Normal Incidence
  0.520449,                               ! Front Side Solar Reflectance at Normal Incidence
  0.520449,                               ! Back Side Solar Reflectance at Normal Incidence
  0.450308,                               ! Visible Transmittance at Normal Incidence
  0.499692,                               ! Front Side Visible Reflectance at Normal Incidence
  0.499692,                               ! Back Side Visible Reflectance at Normal Incidence
  0,                                      ! Infrared Transmittance at Normal Incidence
  0.9,                                    ! Front Side Infrared Hemispherical Emissivity
  0.9,                                    ! Back Side Infrared Hemispherical Emissivity
  0.00893994;                             ! Conductivity {W/m-K}

OS:ComponentCost:LineItem,
  {ad323e81-9f55-455c-90d9-06740d13b887}, ! Handle
  189.1-2009 Res 7A Window Metal framing all other, ! Name
  ,                                       ! Type
  Construction,                           ! Line Item Type
  189.1-2009 Res 7A Window Metal framing all other, ! Item Name
  ,                                       ! Object End Use Key
  ,                                       ! Quantity {dimensionless}
  508.362,                                ! Material Cost {$}
  CostPerArea;                            ! Material Cost Units

OS:ComponentData,
  {82a0b5e6-bb9c-4912-85a4-80487312379c}, ! Handle
  Component Data 1,                       ! Name
  {c34771b0-3fd7-49a9-9bbf-301fc39b7fb7}, ! UUID
  {ce2f20d7-a175-4af8-b99a-f8b199c10c78}, ! Version UUID
  1363980986,                             ! Creation Timestamp
  1363980986,                             ! Version Timestamp
  {47aa070c-8e73-4872-877a-bd198a68577b}, ! Name of Object 1
  {da9acae8-3253-4673-9b45-07602cbe1ccb}, ! Name of Object 2
  {ad323e81-9f55-455c-90d9-06740d13b887}; ! Name of Object 3

