
OS:Version,
  {4a9eb4e1-2d9f-4d4d-861f-663ee08b549c}, ! Handle
  0.9.3;                                  ! Version Identifier

OS:Construction,
  {1506637e-f48f-41da-9be4-968dfe97acd9}, ! Handle
  90.1-2004 Res 8A Ext Wall Mass,         ! Name
  ,                                       ! Surface Rendering Name
  {1f55f3fd-7396-41d0-b905-0acb97f0561e}, ! Layer 1
  {0b9585b0-c7d9-47d1-b714-6225cbd0070e}, ! Layer 2
  {a66e2c3c-760f-4c81-9fbf-14074d635b74}, ! Layer 3
  {43f360cd-040c-4b90-9caa-c841d58e749b}; ! Layer 4

OS:Material,
  {1f55f3fd-7396-41d0-b905-0acb97f0561e}, ! Handle
  1IN Stucco,                             ! Name
  Smooth,                                 ! Roughness
  0.0253,                                 ! Thickness {m}
  0.6918,                                 ! Conductivity {W/m-K}
  1858,                                   ! Density {kg/m3}
  837,                                    ! Specific Heat {J/kg-K}
  0.9,                                    ! Thermal Absorptance
  0.92,                                   ! Solar Absorptance
  0.92;                                   ! Visible Absorptance

OS:Material,
  {0b9585b0-c7d9-47d1-b714-6225cbd0070e}, ! Handle
  8IN Concrete HW,                        ! Name
  MediumRough,                            ! Roughness
  0.2033,                                 ! Thickness {m}
  1.7296,                                 ! Conductivity {W/m-K}
  2243,                                   ! Density {kg/m3}
  837,                                    ! Specific Heat {J/kg-K}
  0.9,                                    ! Thermal Absorptance
  0.65,                                   ! Solar Absorptance
  0.65;                                   ! Visible Absorptance

OS:Material,
  {a66e2c3c-760f-4c81-9fbf-14074d635b74}, ! Handle
  Wall Insulation [22],                   ! Name
  MediumRough,                            ! Roughness
  0.0905334,                              ! Thickness {m}
  0.0432,                                 ! Conductivity {W/m-K}
  91,                                     ! Density {kg/m3}
  837,                                    ! Specific Heat {J/kg-K}
  0.9,                                    ! Thermal Absorptance
  0.5,                                    ! Solar Absorptance
  0.5;                                    ! Visible Absorptance

OS:Material,
  {43f360cd-040c-4b90-9caa-c841d58e749b}, ! Handle
  1/2IN Gypsum,                           ! Name
  Smooth,                                 ! Roughness
  0.01271,                                ! Thickness {m}
  0.16,                                   ! Conductivity {W/m-K}
  784.9,                                  ! Density {kg/m3}
  830,                                    ! Specific Heat {J/kg-K}
  0.9,                                    ! Thermal Absorptance
  0.92,                                   ! Solar Absorptance
  0.92;                                   ! Visible Absorptance

OS:ComponentCost:LineItem,
  {2cd12825-316a-4f30-8be8-5d2e8de44411}, ! Handle
  90.1-2004 Res 8A Ext Wall Mass,         ! Name
  ,                                       ! Type
  Construction,                           ! Line Item Type
  90.1-2004 Res 8A Ext Wall Mass,         ! Item Name
  ,                                       ! Object End Use Key
  ,                                       ! Quantity {dimensionless}
  70.26,                                  ! Material Cost {$}
  CostPerArea;                            ! Material Cost Units

OS:ComponentData,
  {ec118241-649d-4faa-b06c-f9b300c0f8a2}, ! Handle
  Component Data 1,                       ! Name
  {411eea21-2b29-445e-b6b2-09e177871c70}, ! UUID
  {6b94a45a-4998-4cd4-b9bc-53068e9b7a47}, ! Version UUID
  1363981767,                             ! Creation Timestamp
  1363981767,                             ! Version Timestamp
  {1506637e-f48f-41da-9be4-968dfe97acd9}, ! Name of Object 1
  {1f55f3fd-7396-41d0-b905-0acb97f0561e}, ! Name of Object 2
  {0b9585b0-c7d9-47d1-b714-6225cbd0070e}, ! Name of Object 3
  {a66e2c3c-760f-4c81-9fbf-14074d635b74}, ! Name of Object 4
  {43f360cd-040c-4b90-9caa-c841d58e749b}, ! Name of Object 5
  {2cd12825-316a-4f30-8be8-5d2e8de44411}; ! Name of Object 6

