
OS:Version,
  {a2546cd2-b012-4445-a001-cf0c2b918903}, ! Handle
  0.9.3;                                  ! Version Identifier

OS:Construction,
  {13811be0-2ceb-4204-8128-f1d18e6a3dff}, ! Handle
  90.1-2001 Res B22 Window Fixed,         ! Name
  ,                                       ! Surface Rendering Name
  {d8323db7-2d82-47fe-bbd0-26065ad2272d}; ! Layer 1

OS:WindowMaterial:Glazing,
  {d8323db7-2d82-47fe-bbd0-26065ad2272d}, ! Handle
  Theoretical Glass [102],                ! Name
  SpectralAverage,                        ! Optical Data Type
  ,                                       ! Window Glass Spectral Data Set Name
  0.003,                                  ! Thickness {m}
  0.620178,                               ! Solar Transmittance at Normal Incidence
  0.329822,                               ! Front Side Solar Reflectance at Normal Incidence
  0.329822,                               ! Back Side Solar Reflectance at Normal Incidence
  0.639644,                               ! Visible Transmittance at Normal Incidence
  0.310356,                               ! Front Side Visible Reflectance at Normal Incidence
  0.310356,                               ! Back Side Visible Reflectance at Normal Incidence
  0,                                      ! Infrared Transmittance at Normal Incidence
  0.9,                                    ! Front Side Infrared Hemispherical Emissivity
  0.9,                                    ! Back Side Infrared Hemispherical Emissivity
  0.0137862;                              ! Conductivity {W/m-K}

OS:ComponentCost:LineItem,
  {6ce44f79-93b8-4a4a-aaa3-b7ceead1c5dc}, ! Handle
  90.1-2001 Res B22 Window Fixed,         ! Name
  ,                                       ! Type
  Construction,                           ! Line Item Type
  90.1-2001 Res B22 Window Fixed,         ! Item Name
  ,                                       ! Object End Use Key
  ,                                       ! Quantity {dimensionless}
  531.711,                                ! Material Cost {$}
  CostPerArea;                            ! Material Cost Units

