
OS:Version,
  {7f746948-d024-46e7-80ac-8ffbf2844198}, ! Handle
  0.9.3;                                  ! Version Identifier

OS:Construction,
  {f70d4ab4-6c3b-4542-a2a7-00eb35f3f126}, ! Handle
  90.1-2001 Res B22 Window Fixed,         ! Name
  ,                                       ! Surface Rendering Name
  {9a9b231e-8604-4500-bdbe-9de6b066a66f}; ! Layer 1

OS:WindowMaterial:Glazing,
  {9a9b231e-8604-4500-bdbe-9de6b066a66f}, ! Handle
  Theoretical Glass [102],                ! Name
  SpectralAverage,                        ! Optical Data Type
  ,                                       ! Window Glass Spectral Data Set Name
  0.003,                                  ! Thickness {m}
  0.620178,                               ! Solar Transmittance at Normal Incidence
  0.329822,                               ! Front Side Solar Reflectance at Normal Incidence
  0.329822,                               ! Back Side Solar Reflectance at Normal Incidence
  0.639644,                               ! Visible Transmittance at Normal Incidence
  0.310356,                               ! Front Side Visible Reflectance at Normal Incidence
  0.310356,                               ! Back Side Visible Reflectance at Normal Incidence
  0,                                      ! Infrared Transmittance at Normal Incidence
  0.9,                                    ! Front Side Infrared Hemispherical Emissivity
  0.9,                                    ! Back Side Infrared Hemispherical Emissivity
  0.0137862;                              ! Conductivity {W/m-K}

OS:ComponentCost:LineItem,
  {b64f9536-119f-451f-aa9f-d03527a1b020}, ! Handle
  90.1-2001 Res B22 Window Fixed,         ! Name
  ,                                       ! Type
  Construction,                           ! Line Item Type
  90.1-2001 Res B22 Window Fixed,         ! Item Name
  ,                                       ! Object End Use Key
  ,                                       ! Quantity {dimensionless}
  531.711,                                ! Material Cost {$}
  CostPerArea;                            ! Material Cost Units

OS:ComponentData,
  {4fc058bf-1986-472c-800e-c4aa9c1148e3}, ! Handle
  Component Data 1,                       ! Name
  {004ab8d5-1a60-44ea-b7c2-56e07d0241dd}, ! UUID
  {42e5f6c5-cc54-4fc0-ac0e-e388b6ef0861}, ! Version UUID
  1363981594,                             ! Creation Timestamp
  1363981594,                             ! Version Timestamp
  {f70d4ab4-6c3b-4542-a2a7-00eb35f3f126}, ! Name of Object 1
  {9a9b231e-8604-4500-bdbe-9de6b066a66f}, ! Name of Object 2
  {b64f9536-119f-451f-aa9f-d03527a1b020}; ! Name of Object 3

