
OS:Version,
  {4de6cabd-0d00-4687-9a99-09cf47bec833}, ! Handle
  0.9.3;                                  ! Version Identifier

OS:ComponentCost:LineItem,
  {6efc5f03-d6d7-4ab0-af45-ea2065f201e6}, ! Handle
  90.1-2007 Nonres 6B Exposed Floor Mass, ! Name
  ,                                       ! Type
  Construction,                           ! Line Item Type
  90.1-2007 Nonres 6B Exposed Floor Mass, ! Item Name
  ,                                       ! Object End Use Key
  ,                                       ! Quantity {dimensionless}
  54.164,                                 ! Material Cost {$}
  CostPerArea;                            ! Material Cost Units

OS:Material,
  {aaa6c7f9-bca2-43e1-8b42-4bf6f5f856b5}, ! Handle
  Floor Insulation [3],                   ! Name
  MediumRough,                            ! Roughness
  0.0962549,                              ! Thickness {m}
  0.045,                                  ! Conductivity {W/m-K}
  265,                                    ! Density {kg/m3}
  836.8,                                  ! Specific Heat {J/kg-K}
  0.9,                                    ! Thermal Absorptance
  0.7,                                    ! Solar Absorptance
  0.7;                                    ! Visible Absorptance

OS:Construction,
  {f84b9971-0eb3-462e-bd92-7f3d654abf90}, ! Handle
  90.1-2007 Nonres 6B Exposed Floor Mass, ! Name
  ,                                       ! Surface Rendering Name
  {aaa6c7f9-bca2-43e1-8b42-4bf6f5f856b5}, ! Layer 1
  {4b032cd2-7f0a-45ef-83ab-9f6f5ab477f7}, ! Layer 2
  {fa17bcd6-0127-435f-a44d-86c05ccc5aa3}; ! Layer 3

OS:Material,
  {4b032cd2-7f0a-45ef-83ab-9f6f5ab477f7}, ! Handle
  MAT-CC05 8 HW CONCRETE,                 ! Name
  Rough,                                  ! Roughness
  0.20321,                                ! Thickness {m}
  1.311,                                  ! Conductivity {W/m-K}
  2240,                                   ! Density {kg/m3}
  836.8,                                  ! Specific Heat {J/kg-K}
  0.9,                                    ! Thermal Absorptance
  0.7,                                    ! Solar Absorptance
  0.7;                                    ! Visible Absorptance

OS:Material:NoMass,
  {fa17bcd6-0127-435f-a44d-86c05ccc5aa3}, ! Handle
  CP02 CARPET PAD,                        ! Name
  VeryRough,                              ! Roughness
  0.21648,                                ! Thermal Resistance {m2-K/W}
  0.9,                                    ! Thermal Absorptance
  0.7,                                    ! Solar Absorptance
  0.8;                                    ! Visible Absorptance

