
OS:Version,
  {b1eb2cf3-3f05-4c9b-8747-0f3d582a8cec}, ! Handle
  0.9.3;                                  ! Version Identifier

OS:Construction,
  {7fb8a284-343c-412f-a89a-7efa3885c28c}, ! Handle
  90.1-2007 Nonres 6B Exposed Floor Mass, ! Name
  ,                                       ! Surface Rendering Name
  {5243f6e1-fb86-4f69-8326-0a60b4b91d87}, ! Layer 1
  {7e49cbbf-f529-4273-9699-c4ca876a6978}, ! Layer 2
  {b9e26cef-f0dc-4c5a-9be5-d3551b0f399c}; ! Layer 3

OS:Material,
  {5243f6e1-fb86-4f69-8326-0a60b4b91d87}, ! Handle
  Floor Insulation [3],                   ! Name
  MediumRough,                            ! Roughness
  0.0962549,                              ! Thickness {m}
  0.045,                                  ! Conductivity {W/m-K}
  265,                                    ! Density {kg/m3}
  836.8,                                  ! Specific Heat {J/kg-K}
  0.9,                                    ! Thermal Absorptance
  0.7,                                    ! Solar Absorptance
  0.7;                                    ! Visible Absorptance

OS:Material,
  {7e49cbbf-f529-4273-9699-c4ca876a6978}, ! Handle
  MAT-CC05 8 HW CONCRETE,                 ! Name
  Rough,                                  ! Roughness
  0.20321,                                ! Thickness {m}
  1.311,                                  ! Conductivity {W/m-K}
  2240,                                   ! Density {kg/m3}
  836.8,                                  ! Specific Heat {J/kg-K}
  0.9,                                    ! Thermal Absorptance
  0.7,                                    ! Solar Absorptance
  0.7;                                    ! Visible Absorptance

OS:Material:NoMass,
  {b9e26cef-f0dc-4c5a-9be5-d3551b0f399c}, ! Handle
  CP02 CARPET PAD,                        ! Name
  VeryRough,                              ! Roughness
  0.21648,                                ! Thermal Resistance {m2-K/W}
  0.9,                                    ! Thermal Absorptance
  0.7,                                    ! Solar Absorptance
  0.8;                                    ! Visible Absorptance

OS:ComponentCost:LineItem,
  {771b69f2-fd20-4173-85ed-137aea462c64}, ! Handle
  90.1-2007 Nonres 6B Exposed Floor Mass, ! Name
  ,                                       ! Type
  Construction,                           ! Line Item Type
  90.1-2007 Nonres 6B Exposed Floor Mass, ! Item Name
  ,                                       ! Object End Use Key
  ,                                       ! Quantity {dimensionless}
  54.164,                                 ! Material Cost {$}
  CostPerArea;                            ! Material Cost Units

OS:ComponentData,
  {0f6c5095-0a8a-4a47-a35f-0a853637c8c3}, ! Handle
  Component Data 1,                       ! Name
  {12b9436c-a4b1-4eac-977c-071f0c9162f7}, ! UUID
  {524c92a6-2844-445e-936c-7869af30a99b}, ! Version UUID
  1363981815,                             ! Creation Timestamp
  1363981815,                             ! Version Timestamp
  {7fb8a284-343c-412f-a89a-7efa3885c28c}, ! Name of Object 1
  {5243f6e1-fb86-4f69-8326-0a60b4b91d87}, ! Name of Object 2
  {7e49cbbf-f529-4273-9699-c4ca876a6978}, ! Name of Object 3
  {b9e26cef-f0dc-4c5a-9be5-d3551b0f399c}, ! Name of Object 4
  {771b69f2-fd20-4173-85ed-137aea462c64}; ! Name of Object 5

