
OS:Version,
  {5a4fb7df-226c-4f55-98fc-b35abe017645}, ! Handle
  0.9.3;                                  ! Version Identifier

OS:Material,
  {862d3865-4048-442e-b864-3cede80b4983}, ! Handle
  Wood Shingles,                          ! Name
  VeryRough,                              ! Roughness
  0.0178,                                 ! Thickness {m}
  0.115,                                  ! Conductivity {W/m-K}
  513,                                    ! Density {kg/m3}
  1255,                                   ! Specific Heat {J/kg-K}
  0.9,                                    ! Thermal Absorptance
  0.78,                                   ! Solar Absorptance
  0.78;                                   ! Visible Absorptance

OS:Material,
  {25df5872-737c-4a28-988c-71dfad00a6c1}, ! Handle
  1IN Wood Decking,                       ! Name
  MediumSmooth,                           ! Roughness
  0.0254,                                 ! Thickness {m}
  0.1211,                                 ! Conductivity {W/m-K}
  593,                                    ! Density {kg/m3}
  2510,                                   ! Specific Heat {J/kg-K}
  0.9,                                    ! Thermal Absorptance
  0.78,                                   ! Solar Absorptance
  0.78;                                   ! Visible Absorptance

OS:Material,
  {cdb35b01-b8b1-48a2-8f32-12f834a9f5a5}, ! Handle
  1/2IN Gypsum,                           ! Name
  Smooth,                                 ! Roughness
  0.01271,                                ! Thickness {m}
  0.16,                                   ! Conductivity {W/m-K}
  784.9,                                  ! Density {kg/m3}
  830,                                    ! Specific Heat {J/kg-K}
  0.9,                                    ! Thermal Absorptance
  0.92,                                   ! Solar Absorptance
  0.92;                                   ! Visible Absorptance

OS:Construction,
  {000c5f6f-234b-4e2f-9a7a-465137e7b637}, ! Handle
  90.1-1999 Nonres B10 Roof Attic and Other, ! Name
  ,                                       ! Surface Rendering Name
  {862d3865-4048-442e-b864-3cede80b4983}, ! Layer 1
  {25df5872-737c-4a28-988c-71dfad00a6c1}, ! Layer 2
  {9d53a06a-738e-4ce2-b3b9-f79ee7641e31}, ! Layer 3
  {cdb35b01-b8b1-48a2-8f32-12f834a9f5a5}; ! Layer 4

OS:Material,
  {9d53a06a-738e-4ce2-b3b9-f79ee7641e31}, ! Handle
  Roof Insulation [2],                    ! Name
  MediumRough,                            ! Roughness
  0.221604,                               ! Thickness {m}
  0.049,                                  ! Conductivity {W/m-K}
  265,                                    ! Density {kg/m3}
  836.8,                                  ! Specific Heat {J/kg-K}
  0.9,                                    ! Thermal Absorptance
  0.7,                                    ! Solar Absorptance
  0.7;                                    ! Visible Absorptance

OS:ComponentCost:LineItem,
  {76c24f79-5db2-4742-a727-716fbcb6f6f5}, ! Handle
  90.1-1999 Nonres B10 Roof Attic and Other, ! Name
  ,                                       ! Type
  Construction,                           ! Line Item Type
  90.1-1999 Nonres B10 Roof Attic and Other, ! Item Name
  ,                                       ! Object End Use Key
  ,                                       ! Quantity {dimensionless}
  33.39,                                  ! Material Cost {$}
  CostPerArea;                            ! Material Cost Units

