
OS:Version,
  {308cde5b-5dfa-4bdb-ae75-38a00e76af82}, ! Handle
  0.9.3;                                  ! Version Identifier

OS:Material,
  {5927ee4b-c2a4-471c-81a6-d3ae162c1836}, ! Handle
  MAT-CC05 8 HW CONCRETE,                 ! Name
  Rough,                                  ! Roughness
  0.20321,                                ! Thickness {m}
  1.311,                                  ! Conductivity {W/m-K}
  2240,                                   ! Density {kg/m3}
  836.8,                                  ! Specific Heat {J/kg-K}
  0.9,                                    ! Thermal Absorptance
  0.7,                                    ! Solar Absorptance
  0.7;                                    ! Visible Absorptance

OS:ComponentCost:LineItem,
  {fb0b7f53-e7ed-459e-a860-ed661859fbd9}, ! Handle
  90.1-1999 Res B22 Ext Slab Unheated - 8in Slab with Carpet, ! Name
  ,                                       ! Type
  Construction,                           ! Line Item Type
  90.1-1999 Res B22 Ext Slab Unheated - 8in Slab with Carpet, ! Item Name
  ,                                       ! Object End Use Key
  ,                                       ! Quantity {dimensionless}
  45.52,                                  ! Material Cost {$}
  CostPerArea;                            ! Material Cost Units

OS:Material:NoMass,
  {177e2ede-ae9a-4677-be66-c88ed03529f5}, ! Handle
  CP02 CARPET PAD,                        ! Name
  VeryRough,                              ! Roughness
  0.21648,                                ! Thermal Resistance {m2-K/W}
  0.9,                                    ! Thermal Absorptance
  0.7,                                    ! Solar Absorptance
  0.8;                                    ! Visible Absorptance

OS:Construction,
  {d6c9177a-a80d-4814-b0c8-09751595ec10}, ! Handle
  90.1-1999 Res B22 Ext Slab Unheated - 8in Slab with Carpet, ! Name
  ,                                       ! Surface Rendering Name
  {5927ee4b-c2a4-471c-81a6-d3ae162c1836}, ! Layer 1
  {177e2ede-ae9a-4677-be66-c88ed03529f5}; ! Layer 2

