
OS:Version,
  {f062c9a6-468a-4a55-bf85-ae778a3fa2ac}, ! Handle
  0.9.3;                                  ! Version Identifier

OS:Material,
  {79e27f76-cc31-449f-93fe-8de0ef112322}, ! Handle
  Roof Insulation [2],                    ! Name
  MediumRough,                            ! Roughness
  0.221604,                               ! Thickness {m}
  0.049,                                  ! Conductivity {W/m-K}
  265,                                    ! Density {kg/m3}
  836.8,                                  ! Specific Heat {J/kg-K}
  0.9,                                    ! Thermal Absorptance
  0.7,                                    ! Solar Absorptance
  0.7;                                    ! Visible Absorptance

OS:Construction,
  {e55f1372-1649-420c-b9a7-cb5a56e1c02b}, ! Handle
  90.1-1999 Res B15 Roof Attic and Other, ! Name
  ,                                       ! Surface Rendering Name
  {14ffdf9a-aa56-4f11-b295-1d4e16328522}, ! Layer 1
  {65d9fe3e-9397-4762-accf-98630db57df1}, ! Layer 2
  {79e27f76-cc31-449f-93fe-8de0ef112322}, ! Layer 3
  {a3a53ddd-62fd-4cd9-8832-d48b0b111ce3}; ! Layer 4

OS:Material,
  {14ffdf9a-aa56-4f11-b295-1d4e16328522}, ! Handle
  Wood Shingles,                          ! Name
  VeryRough,                              ! Roughness
  0.0178,                                 ! Thickness {m}
  0.115,                                  ! Conductivity {W/m-K}
  513,                                    ! Density {kg/m3}
  1255,                                   ! Specific Heat {J/kg-K}
  0.9,                                    ! Thermal Absorptance
  0.78,                                   ! Solar Absorptance
  0.78;                                   ! Visible Absorptance

OS:Material,
  {65d9fe3e-9397-4762-accf-98630db57df1}, ! Handle
  1IN Wood Decking,                       ! Name
  MediumSmooth,                           ! Roughness
  0.0254,                                 ! Thickness {m}
  0.1211,                                 ! Conductivity {W/m-K}
  593,                                    ! Density {kg/m3}
  2510,                                   ! Specific Heat {J/kg-K}
  0.9,                                    ! Thermal Absorptance
  0.78,                                   ! Solar Absorptance
  0.78;                                   ! Visible Absorptance

OS:Material,
  {a3a53ddd-62fd-4cd9-8832-d48b0b111ce3}, ! Handle
  1/2IN Gypsum,                           ! Name
  Smooth,                                 ! Roughness
  0.01271,                                ! Thickness {m}
  0.16,                                   ! Conductivity {W/m-K}
  784.9,                                  ! Density {kg/m3}
  830,                                    ! Specific Heat {J/kg-K}
  0.9,                                    ! Thermal Absorptance
  0.92,                                   ! Solar Absorptance
  0.92;                                   ! Visible Absorptance

OS:ComponentCost:LineItem,
  {6aad7e9c-b21f-4c54-947e-99e34ea0f864}, ! Handle
  90.1-1999 Res B15 Roof Attic and Other, ! Name
  ,                                       ! Type
  Construction,                           ! Line Item Type
  90.1-1999 Res B15 Roof Attic and Other, ! Item Name
  ,                                       ! Object End Use Key
  ,                                       ! Quantity {dimensionless}
  33.39,                                  ! Material Cost {$}
  CostPerArea;                            ! Material Cost Units

