
OS:Version,
  {44013eaf-0206-443f-839d-e08eff1d62a6}, !- Handle
  1.1.0;                                  !- Version Identifier

OS:Construction,
  {dd282a3f-b16e-4657-b298-b6a822489277}, !- Handle
  Sgl Ref-A-H Tint 6mm,                   !- Name
  ,                                       !- Surface Rendering Name
  {545babd6-33d6-4cba-ae62-3cbc7aadd372}; !- Layer 1

OS:WindowMaterial:Glazing,
  {545babd6-33d6-4cba-ae62-3cbc7aadd372}, !- Handle
  REF A TINT HI 6MM,                      !- Name
  SpectralAverage,                        !- Optical Data Type
  ,                                       !- Window Glass Spectral Data Set Name
  0.006,                                  !- Thickness {m}
  0.1,                                    !- Solar Transmittance at Normal Incidence
  0.11,                                   !- Front Side Solar Reflectance at Normal Incidence
  0.38,                                   !- Back Side Solar Reflectance at Normal Incidence
  0.1,                                    !- Visible Transmittance at Normal Incidence
  0.11,                                   !- Front Side Visible Reflectance at Normal Incidence
  0.32,                                   !- Back Side Visible Reflectance at Normal Incidence
  0,                                      !- Infrared Transmittance at Normal Incidence
  0.84,                                   !- Front Side Infrared Hemispherical Emissivity
  0.53,                                   !- Back Side Infrared Hemispherical Emissivity
  0.9;                                    !- Conductivity {W/m-K}

OS:ComponentData,
  {e2a319d2-1d87-4d0f-b380-66d228824514}, !- Handle
  Component Data 1,                       !- Name
  {5efad1ae-4e73-4822-9de0-1fe04ca46ac8}, !- UUID
  {cf8a9b67-0591-4dc6-bcf5-83c3584315bd}, !- Version UUID
  1384380198,                             !- Creation Timestamp
  1384380198,                             !- Version Timestamp
  {dd282a3f-b16e-4657-b298-b6a822489277}, !- Name of Object 1
  {545babd6-33d6-4cba-ae62-3cbc7aadd372}; !- Name of Object 2

