
OS:Version,
  {42c80fbe-c47d-4c7a-a8a7-87adaa51b5c2}, !- Handle
  1.1.0;                                  !- Version Identifier

OS:Construction,
  {63ee31ce-5561-4907-afbd-c184f0d14a25}, !- Handle
  Sgl Ref-A-H Tint 6mm,                   !- Name
  ,                                       !- Surface Rendering Name
  {69457368-bbaf-4dc7-a016-1d7381b8cee7}; !- Layer 1

OS:WindowMaterial:Glazing,
  {69457368-bbaf-4dc7-a016-1d7381b8cee7}, !- Handle
  REF A TINT HI 6MM,                      !- Name
  SpectralAverage,                        !- Optical Data Type
  ,                                       !- Window Glass Spectral Data Set Name
  0.006,                                  !- Thickness {m}
  0.1,                                    !- Solar Transmittance at Normal Incidence
  0.11,                                   !- Front Side Solar Reflectance at Normal Incidence
  0.38,                                   !- Back Side Solar Reflectance at Normal Incidence
  0.1,                                    !- Visible Transmittance at Normal Incidence
  0.11,                                   !- Front Side Visible Reflectance at Normal Incidence
  0.32,                                   !- Back Side Visible Reflectance at Normal Incidence
  0,                                      !- Infrared Transmittance at Normal Incidence
  0.84,                                   !- Front Side Infrared Hemispherical Emissivity
  0.53,                                   !- Back Side Infrared Hemispherical Emissivity
  0.9;                                    !- Conductivity {W/m-K}

