
! 
OS:Version,
  {8503bb35-3288-4176-9c41-752f3d976c4b}, !- Handle
  1.13.0;                                 !- Version Identifier


! 
OS:Material,
  {bdd3c3a6-e71e-4f08-8652-d4d26d388229}, !- Handle
  Aislamiento: SATE
WEBER: weber.therm placa EPS grafito 50 (0.050 m)
R: 1.6 m2K/W,                             !- Name
  MediumRough,                                 !- Roughness
  0.05,                                    !- Thickness {m}
  0.032,                                    !- Conductivity {W/m-K}
  15.0,                                    !- Density {kg/m3}
  800.0,                                    !- Specific Heat {J/kg-K}
  0.9,                                    !- Thermal Absorptance
  0.6,                                    !- Solar Absorptance
  0.6;                                    !- Visible Absorptance

