
OS:Version,
  {fc631388-af4a-4ebe-9b28-a0677a2256a9}, ! Handle
  0.9.3;                                  ! Version Identifier

OS:Construction,
  {daa5f0ad-d702-4a57-9d4e-967a7e4e6c76}, ! Handle
  90.1-2004 Res 8A Skylight without Curb, ! Name
  ,                                       ! Surface Rendering Name
  {505da2d9-c848-4569-8a39-b94ce4178d6f}; ! Layer 1

OS:WindowMaterial:Glazing,
  {505da2d9-c848-4569-8a39-b94ce4178d6f}, ! Handle
  Theoretical Glass [157],                ! Name
  SpectralAverage,                        ! Optical Data Type
  ,                                       ! Window Glass Spectral Data Set Name
  0.003,                                  ! Thickness {m}
  0.482092,                               ! Solar Transmittance at Normal Incidence
  0.467908,                               ! Front Side Solar Reflectance at Normal Incidence
  0.467908,                               ! Back Side Solar Reflectance at Normal Incidence
  0.489393,                               ! Visible Transmittance at Normal Incidence
  0.460607,                               ! Front Side Visible Reflectance at Normal Incidence
  0.460607,                               ! Back Side Visible Reflectance at Normal Incidence
  0,                                      ! Infrared Transmittance at Normal Incidence
  0.9,                                    ! Front Side Infrared Hemispherical Emissivity
  0.9,                                    ! Back Side Infrared Hemispherical Emissivity
  0.0205762;                              ! Conductivity {W/m-K}

OS:ComponentData,
  {3b191421-831e-44a8-87b4-4ea28be03a5f}, ! Handle
  Component Data 1,                       ! Name
  {e65bfeda-f4f4-413a-a382-45988fb86699}, ! UUID
  {9f2ae3a6-00d6-42d9-b39c-7f89658c59a8}, ! Version UUID
  1363981773,                             ! Creation Timestamp
  1363981773,                             ! Version Timestamp
  {daa5f0ad-d702-4a57-9d4e-967a7e4e6c76}, ! Name of Object 1
  {505da2d9-c848-4569-8a39-b94ce4178d6f}; ! Name of Object 2

