
OS:Version,
  {c680f858-bef2-4ffa-a190-716e25a72b83}, ! Handle
  0.9.3;                                  ! Version Identifier

OS:WindowMaterial:Glazing,
  {d76f1ca7-25bb-4242-8298-cf746090f6eb}, ! Handle
  Theoretical Glass [157],                ! Name
  SpectralAverage,                        ! Optical Data Type
  ,                                       ! Window Glass Spectral Data Set Name
  0.003,                                  ! Thickness {m}
  0.482092,                               ! Solar Transmittance at Normal Incidence
  0.467908,                               ! Front Side Solar Reflectance at Normal Incidence
  0.467908,                               ! Back Side Solar Reflectance at Normal Incidence
  0.489393,                               ! Visible Transmittance at Normal Incidence
  0.460607,                               ! Front Side Visible Reflectance at Normal Incidence
  0.460607,                               ! Back Side Visible Reflectance at Normal Incidence
  0,                                      ! Infrared Transmittance at Normal Incidence
  0.9,                                    ! Front Side Infrared Hemispherical Emissivity
  0.9,                                    ! Back Side Infrared Hemispherical Emissivity
  0.0205762;                              ! Conductivity {W/m-K}

OS:Construction,
  {0e0f3db3-8320-451c-b3eb-74f2922fe373}, ! Handle
  90.1-2004 Res 8A Skylight without Curb, ! Name
  ,                                       ! Surface Rendering Name
  {d76f1ca7-25bb-4242-8298-cf746090f6eb}; ! Layer 1

