
OS:Version,
  {7156a8a4-0938-45fb-a593-c17274341b9a}, ! Handle
  0.9.3;                                  ! Version Identifier

OS:Material,
  {3f0471f0-6ac8-451a-93e6-affa6c4ae49f}, ! Handle
  1/2IN Gypsum,                           ! Name
  Smooth,                                 ! Roughness
  0.01271,                                ! Thickness {m}
  0.16,                                   ! Conductivity {W/m-K}
  784.9,                                  ! Density {kg/m3}
  830,                                    ! Specific Heat {J/kg-K}
  0.9,                                    ! Thermal Absorptance
  0.92,                                   ! Solar Absorptance
  0.92;                                   ! Visible Absorptance

OS:Construction,
  {5008a925-a496-47fb-a4ff-88ecbe53e863}, ! Handle
  189.1-2009 Nonres 7A Ext Wall Metal Building, ! Name
  ,                                       ! Surface Rendering Name
  {e3430710-3a97-4dab-957d-3bb9482ae1b0}, ! Layer 1
  {50bd699b-8d0f-40a0-9229-3d1562263d3c}, ! Layer 2
  {3f0471f0-6ac8-451a-93e6-affa6c4ae49f}; ! Layer 3

OS:Material,
  {e3430710-3a97-4dab-957d-3bb9482ae1b0}, ! Handle
  Metal Siding,                           ! Name
  Smooth,                                 ! Roughness
  0.0015,                                 ! Thickness {m}
  44.96,                                  ! Conductivity {W/m-K}
  7688.86,                                ! Density {kg/m3}
  410,                                    ! Specific Heat {J/kg-K}
  0.9,                                    ! Thermal Absorptance
  0.2,                                    ! Solar Absorptance
  0.2;                                    ! Visible Absorptance

OS:Material,
  {50bd699b-8d0f-40a0-9229-3d1562263d3c}, ! Handle
  Wall Insulation [38],                   ! Name
  MediumRough,                            ! Roughness
  0.139618,                               ! Thickness {m}
  0.045,                                  ! Conductivity {W/m-K}
  265,                                    ! Density {kg/m3}
  836.8,                                  ! Specific Heat {J/kg-K}
  0.9,                                    ! Thermal Absorptance
  0.7,                                    ! Solar Absorptance
  0.7;                                    ! Visible Absorptance

OS:ComponentCost:LineItem,
  {e6522e5f-5daf-4ed9-9a58-2c71403765b4}, ! Handle
  189.1-2009 Nonres 7A Ext Wall Metal Building, ! Name
  ,                                       ! Type
  Construction,                           ! Line Item Type
  189.1-2009 Nonres 7A Ext Wall Metal Building, ! Item Name
  ,                                       ! Object End Use Key
  ,                                       ! Quantity {dimensionless}
  110.41,                                 ! Material Cost {$}
  CostPerArea;                            ! Material Cost Units

