
OS:Version,
  {4dd322e8-9ee8-4591-aaa5-15cd7bf9fa1d}, ! Handle
  0.9.3;                                  ! Version Identifier

OS:Construction,
  {5f3687de-2c9f-4620-8dc5-46828ee26b4c}, ! Handle
  AEDG-SmOffice 4B Ext Wall Spandrel,     ! Name
  ,                                       ! Surface Rendering Name
  {f623c0d9-a818-47d3-abdb-7b0d11e87e7d}, ! Layer 1
  {e1d7409b-f21b-48ff-be08-e96c750d0517}, ! Layer 2
  {ce9e7ab4-a4c5-47ab-97ba-f3ef62af0cf8}; ! Layer 3

OS:Material,
  {f623c0d9-a818-47d3-abdb-7b0d11e87e7d}, ! Handle
  SpandrelGlass,                          ! Name
  Smooth,                                 ! Roughness
  0.007,                                  ! Thickness {m}
  45.31,                                  ! Conductivity {W/m-K}
  7833.02,                                ! Density {kg/m3}
  500,                                    ! Specific Heat {J/kg-K}
  0.9,                                    ! Thermal Absorptance
  0.23,                                   ! Solar Absorptance
  0.23;                                   ! Visible Absorptance

OS:Material,
  {e1d7409b-f21b-48ff-be08-e96c750d0517}, ! Handle
  Wall Insulation [50],                   ! Name
  MediumRough,                            ! Roughness
  0.078829,                               ! Thickness {m}
  0.045,                                  ! Conductivity {W/m-K}
  265,                                    ! Density {kg/m3}
  836.8,                                  ! Specific Heat {J/kg-K}
  0.9,                                    ! Thermal Absorptance
  0.7,                                    ! Solar Absorptance
  0.7;                                    ! Visible Absorptance

OS:Material,
  {ce9e7ab4-a4c5-47ab-97ba-f3ef62af0cf8}, ! Handle
  1/2IN Gypsum,                           ! Name
  Smooth,                                 ! Roughness
  0.01271,                                ! Thickness {m}
  0.16,                                   ! Conductivity {W/m-K}
  784.9,                                  ! Density {kg/m3}
  830,                                    ! Specific Heat {J/kg-K}
  0.9,                                    ! Thermal Absorptance
  0.92,                                   ! Solar Absorptance
  0.92;                                   ! Visible Absorptance

OS:ComponentCost:LineItem,
  {cc83d3cd-7053-4329-946c-d5e4356ca9c1}, ! Handle
  AEDG-SmOffice 4B Ext Wall Spandrel,     ! Name
  ,                                       ! Type
  Construction,                           ! Line Item Type
  AEDG-SmOffice 4B Ext Wall Spandrel,     ! Item Name
  ,                                       ! Object End Use Key
  ,                                       ! Quantity {dimensionless}
  74.63,                                  ! Material Cost {$}
  CostPerArea;                            ! Material Cost Units

