
OS:Version,
  {5e3bb83a-2630-406e-a643-1613537c0158}, ! Handle
  0.9.3;                                  ! Version Identifier

OS:Construction,
  {f496e71d-e18d-4e18-bc7d-58efdd058f46}, ! Handle
  AEDG-SmOffice 4B Ext Wall Spandrel,     ! Name
  ,                                       ! Surface Rendering Name
  {702c797b-af6e-4258-a11c-056522814f29}, ! Layer 1
  {21985fdf-38ae-4371-a207-6e55108848dc}, ! Layer 2
  {b2b9fa4e-4660-4e62-8cb6-fb6bcb64db2f}; ! Layer 3

OS:Material,
  {702c797b-af6e-4258-a11c-056522814f29}, ! Handle
  SpandrelGlass,                          ! Name
  Smooth,                                 ! Roughness
  0.007,                                  ! Thickness {m}
  45.31,                                  ! Conductivity {W/m-K}
  7833.02,                                ! Density {kg/m3}
  500,                                    ! Specific Heat {J/kg-K}
  0.9,                                    ! Thermal Absorptance
  0.23,                                   ! Solar Absorptance
  0.23;                                   ! Visible Absorptance

OS:Material,
  {21985fdf-38ae-4371-a207-6e55108848dc}, ! Handle
  Wall Insulation [50],                   ! Name
  MediumRough,                            ! Roughness
  0.078829,                               ! Thickness {m}
  0.045,                                  ! Conductivity {W/m-K}
  265,                                    ! Density {kg/m3}
  836.8,                                  ! Specific Heat {J/kg-K}
  0.9,                                    ! Thermal Absorptance
  0.7,                                    ! Solar Absorptance
  0.7;                                    ! Visible Absorptance

OS:Material,
  {b2b9fa4e-4660-4e62-8cb6-fb6bcb64db2f}, ! Handle
  1/2IN Gypsum,                           ! Name
  Smooth,                                 ! Roughness
  0.01271,                                ! Thickness {m}
  0.16,                                   ! Conductivity {W/m-K}
  784.9,                                  ! Density {kg/m3}
  830,                                    ! Specific Heat {J/kg-K}
  0.9,                                    ! Thermal Absorptance
  0.92,                                   ! Solar Absorptance
  0.92;                                   ! Visible Absorptance

OS:ComponentCost:LineItem,
  {0e5e8676-1e40-4bef-9b52-cbd87d6a6171}, ! Handle
  AEDG-SmOffice 4B Ext Wall Spandrel,     ! Name
  ,                                       ! Type
  Construction,                           ! Line Item Type
  AEDG-SmOffice 4B Ext Wall Spandrel,     ! Item Name
  ,                                       ! Object End Use Key
  ,                                       ! Quantity {dimensionless}
  74.63,                                  ! Material Cost {$}
  CostPerArea;                            ! Material Cost Units

OS:ComponentData,
  {49026577-38e6-4e51-aad6-2ecdcf3083b4}, ! Handle
  Component Data 1,                       ! Name
  {b7f0c112-b331-46db-a094-a6af915d3e39}, ! UUID
  {05a3472b-86cd-4c93-9458-6e90701e66ef}, ! Version UUID
  1363981951,                             ! Creation Timestamp
  1363981951,                             ! Version Timestamp
  {f496e71d-e18d-4e18-bc7d-58efdd058f46}, ! Name of Object 1
  {702c797b-af6e-4258-a11c-056522814f29}, ! Name of Object 2
  {21985fdf-38ae-4371-a207-6e55108848dc}, ! Name of Object 3
  {b2b9fa4e-4660-4e62-8cb6-fb6bcb64db2f}, ! Name of Object 4
  {0e5e8676-1e40-4bef-9b52-cbd87d6a6171}; ! Name of Object 5

