
OS:Version,
  {b51b993a-5806-44ac-a9b5-1f2961186aed}, ! Handle
  0.9.3;                                  ! Version Identifier

OS:Construction,
  {ed7bbcdf-c9ba-481b-a698-29458f096f63}, ! Handle
  90.1 Windows Window Fixed 1303 Brk-Hpt, ! Name
  ,                                       ! Surface Rendering Name
  {5364ca50-baa9-42a8-a8c9-babd1776da5d}; ! Layer 1

OS:WindowMaterial:Glazing,
  {5364ca50-baa9-42a8-a8c9-babd1776da5d}, ! Handle
  Theoretical Glass [300],                ! Name
  SpectralAverage,                        ! Optical Data Type
  ,                                       ! Window Glass Spectral Data Set Name
  0.003,                                  ! Thickness {m}
  0.496607,                               ! Solar Transmittance at Normal Incidence
  0.453393,                               ! Front Side Solar Reflectance at Normal Incidence
  0.453393,                               ! Back Side Solar Reflectance at Normal Incidence
  0.599285,                               ! Visible Transmittance at Normal Incidence
  0.350715,                               ! Front Side Visible Reflectance at Normal Incidence
  0.350715,                               ! Back Side Visible Reflectance at Normal Incidence
  0,                                      ! Infrared Transmittance at Normal Incidence
  0.95,                                   ! Front Side Infrared Hemispherical Emissivity
  0.95,                                   ! Back Side Infrared Hemispherical Emissivity
  0.593551;                               ! Conductivity {W/m-K}

OS:ComponentCost:LineItem,
  {14d5318c-9ff6-421b-9705-e32705d690d7}, ! Handle
  90.1 Windows Window Fixed 1303 Brk-Hpt, ! Name
  ,                                       ! Type
  Construction,                           ! Line Item Type
  90.1 Windows Window Fixed 1303 Brk-Hpt, ! Item Name
  ,                                       ! Object End Use Key
  ,                                       ! Quantity {dimensionless}
  0,                                      ! Material Cost {$}
  CostPerArea;                            ! Material Cost Units

