
OS:Version,
  {dd81483e-37ac-45fa-9c1b-2896f5b8959a}, ! Handle
  0.9.3;                                  ! Version Identifier

OS:Material,
  {5ecff4c4-b586-4878-8aa8-0e06978bdc9c}, ! Handle
  Roof Insulation [5],                    ! Name
  MediumRough,                            ! Roughness
  0.286906,                               ! Thickness {m}
  0.049,                                  ! Conductivity {W/m-K}
  265,                                    ! Density {kg/m3}
  836.8,                                  ! Specific Heat {J/kg-K}
  0.9,                                    ! Thermal Absorptance
  0.7,                                    ! Solar Absorptance
  0.7;                                    ! Visible Absorptance

OS:Material,
  {8c82eb8b-6711-4f06-9529-1b2c02d2155f}, ! Handle
  1/2IN Gypsum,                           ! Name
  Smooth,                                 ! Roughness
  0.01271,                                ! Thickness {m}
  0.16,                                   ! Conductivity {W/m-K}
  784.9,                                  ! Density {kg/m3}
  830,                                    ! Specific Heat {J/kg-K}
  0.9,                                    ! Thermal Absorptance
  0.92,                                   ! Solar Absorptance
  0.92;                                   ! Visible Absorptance

OS:Construction,
  {fd5d2289-dd46-4e5e-ab26-ea443186aaba}, ! Handle
  90.1-1999 Res B22 Roof Attic and Other, ! Name
  ,                                       ! Surface Rendering Name
  {198607b4-6ca2-47c3-bbed-4e69d04ac9bb}, ! Layer 1
  {1d0989f2-1158-4199-9fb1-2c2a1ab8aa0f}, ! Layer 2
  {5ecff4c4-b586-4878-8aa8-0e06978bdc9c}, ! Layer 3
  {8c82eb8b-6711-4f06-9529-1b2c02d2155f}; ! Layer 4

OS:Material,
  {198607b4-6ca2-47c3-bbed-4e69d04ac9bb}, ! Handle
  Wood Shingles,                          ! Name
  VeryRough,                              ! Roughness
  0.0178,                                 ! Thickness {m}
  0.115,                                  ! Conductivity {W/m-K}
  513,                                    ! Density {kg/m3}
  1255,                                   ! Specific Heat {J/kg-K}
  0.9,                                    ! Thermal Absorptance
  0.78,                                   ! Solar Absorptance
  0.78;                                   ! Visible Absorptance

OS:Material,
  {1d0989f2-1158-4199-9fb1-2c2a1ab8aa0f}, ! Handle
  1IN Wood Decking,                       ! Name
  MediumSmooth,                           ! Roughness
  0.0254,                                 ! Thickness {m}
  0.1211,                                 ! Conductivity {W/m-K}
  593,                                    ! Density {kg/m3}
  2510,                                   ! Specific Heat {J/kg-K}
  0.9,                                    ! Thermal Absorptance
  0.78,                                   ! Solar Absorptance
  0.78;                                   ! Visible Absorptance

OS:ComponentCost:LineItem,
  {ed9ccde5-0953-4bc8-93c7-9d4f490c2d20}, ! Handle
  90.1-1999 Res B22 Roof Attic and Other, ! Name
  ,                                       ! Type
  Construction,                           ! Line Item Type
  90.1-1999 Res B22 Roof Attic and Other, ! Item Name
  ,                                       ! Object End Use Key
  ,                                       ! Quantity {dimensionless}
  34.757,                                 ! Material Cost {$}
  CostPerArea;                            ! Material Cost Units

