
OS:Version,
  {9ff5c480-2844-4763-ab91-8c5b2d28a8b1}, ! Handle
  0.9.3;                                  ! Version Identifier

OS:Construction,
  {5fba4641-bdaa-4a0b-8c83-e88fd0aa5e80}, ! Handle
  90.1-2007 Res 4B Ext Wall Wood-Framed and Other, ! Name
  ,                                       ! Surface Rendering Name
  {84c02130-0ac2-4789-95c6-c6e57d27eeab}, ! Layer 1
  {d4300f8b-2520-4ca2-a3cb-035056468715}, ! Layer 2
  {ced7936d-7b48-43a8-9aa0-2ee46c1b2198}; ! Layer 3

OS:Material,
  {84c02130-0ac2-4789-95c6-c6e57d27eeab}, ! Handle
  Wood Siding,                            ! Name
  MediumSmooth,                           ! Roughness
  0.01,                                   ! Thickness {m}
  0.11,                                   ! Conductivity {W/m-K}
  544.62,                                 ! Density {kg/m3}
  1210,                                   ! Specific Heat {J/kg-K}
  0.9,                                    ! Thermal Absorptance
  0.78,                                   ! Solar Absorptance
  0.78;                                   ! Visible Absorptance

OS:Material,
  {d4300f8b-2520-4ca2-a3cb-035056468715}, ! Handle
  Wall Insulation [24],                   ! Name
  MediumRough,                            ! Roughness
  0.109394,                               ! Thickness {m}
  0.045,                                  ! Conductivity {W/m-K}
  265,                                    ! Density {kg/m3}
  836.8,                                  ! Specific Heat {J/kg-K}
  0.9,                                    ! Thermal Absorptance
  0.7,                                    ! Solar Absorptance
  0.7;                                    ! Visible Absorptance

OS:Material,
  {ced7936d-7b48-43a8-9aa0-2ee46c1b2198}, ! Handle
  1/2IN Gypsum,                           ! Name
  Smooth,                                 ! Roughness
  0.01271,                                ! Thickness {m}
  0.16,                                   ! Conductivity {W/m-K}
  784.9,                                  ! Density {kg/m3}
  830,                                    ! Specific Heat {J/kg-K}
  0.9,                                    ! Thermal Absorptance
  0.92,                                   ! Solar Absorptance
  0.92;                                   ! Visible Absorptance

OS:ComponentCost:LineItem,
  {e57c83f9-b559-48d6-8363-ab2c63265a2e}, ! Handle
  90.1-2007 Res 4B Ext Wall Wood-Framed and Other, ! Name
  ,                                       ! Type
  Construction,                           ! Line Item Type
  90.1-2007 Res 4B Ext Wall Wood-Framed and Other, ! Item Name
  ,                                       ! Object End Use Key
  ,                                       ! Quantity {dimensionless}
  77.622,                                 ! Material Cost {$}
  CostPerArea;                            ! Material Cost Units

OS:ComponentData,
  {4850d486-c943-46d1-b4c0-7f157640ae78}, ! Handle
  Component Data 1,                       ! Name
  {b7db7bb2-7d52-4334-8dc9-70b05bca8b97}, ! UUID
  {6926d4e4-f6df-4183-84db-8ee55a6371e6}, ! Version UUID
  1363981852,                             ! Creation Timestamp
  1363981852,                             ! Version Timestamp
  {5fba4641-bdaa-4a0b-8c83-e88fd0aa5e80}, ! Name of Object 1
  {84c02130-0ac2-4789-95c6-c6e57d27eeab}, ! Name of Object 2
  {d4300f8b-2520-4ca2-a3cb-035056468715}, ! Name of Object 3
  {ced7936d-7b48-43a8-9aa0-2ee46c1b2198}, ! Name of Object 4
  {e57c83f9-b559-48d6-8363-ab2c63265a2e}; ! Name of Object 5

