
OS:Version,
  {4edc7697-a391-46e2-8841-462df9433ba5}, ! Handle
  0.9.3;                                  ! Version Identifier

OS:Material,
  {cf4868f5-079e-4754-bdd6-9c4826e6dfbb}, ! Handle
  Wall Insulation [24],                   ! Name
  MediumRough,                            ! Roughness
  0.109394,                               ! Thickness {m}
  0.045,                                  ! Conductivity {W/m-K}
  265,                                    ! Density {kg/m3}
  836.8,                                  ! Specific Heat {J/kg-K}
  0.9,                                    ! Thermal Absorptance
  0.7,                                    ! Solar Absorptance
  0.7;                                    ! Visible Absorptance

OS:Construction,
  {db73b1a8-fa2d-4aa2-ba18-1a97dc81e9be}, ! Handle
  90.1-2007 Res 4B Ext Wall Wood-Framed and Other, ! Name
  ,                                       ! Surface Rendering Name
  {c89b0280-e625-4f73-bf46-9018503ac330}, ! Layer 1
  {cf4868f5-079e-4754-bdd6-9c4826e6dfbb}, ! Layer 2
  {378b18a5-e0b7-4ba7-9da9-31ea97b01f50}; ! Layer 3

OS:Material,
  {c89b0280-e625-4f73-bf46-9018503ac330}, ! Handle
  Wood Siding,                            ! Name
  MediumSmooth,                           ! Roughness
  0.01,                                   ! Thickness {m}
  0.11,                                   ! Conductivity {W/m-K}
  544.62,                                 ! Density {kg/m3}
  1210,                                   ! Specific Heat {J/kg-K}
  0.9,                                    ! Thermal Absorptance
  0.78,                                   ! Solar Absorptance
  0.78;                                   ! Visible Absorptance

OS:Material,
  {378b18a5-e0b7-4ba7-9da9-31ea97b01f50}, ! Handle
  1/2IN Gypsum,                           ! Name
  Smooth,                                 ! Roughness
  0.01271,                                ! Thickness {m}
  0.16,                                   ! Conductivity {W/m-K}
  784.9,                                  ! Density {kg/m3}
  830,                                    ! Specific Heat {J/kg-K}
  0.9,                                    ! Thermal Absorptance
  0.92,                                   ! Solar Absorptance
  0.92;                                   ! Visible Absorptance

OS:ComponentCost:LineItem,
  {7444839d-5aed-4d85-a007-093de2568cd2}, ! Handle
  90.1-2007 Res 4B Ext Wall Wood-Framed and Other, ! Name
  ,                                       ! Type
  Construction,                           ! Line Item Type
  90.1-2007 Res 4B Ext Wall Wood-Framed and Other, ! Item Name
  ,                                       ! Object End Use Key
  ,                                       ! Quantity {dimensionless}
  77.622,                                 ! Material Cost {$}
  CostPerArea;                            ! Material Cost Units

