
OS:Version,
  {7bbb4aea-a74a-40ab-aecc-b0dcbf759c66}, ! Handle
  0.9.3;                                  ! Version Identifier

OS:Material,
  {b2eccf6a-5121-4bce-bec4-4d5fe7ad10d4}, ! Handle
  Metal Roofing,                          ! Name
  MediumSmooth,                           ! Roughness
  0.001524,                               ! Thickness {m}
  45.006,                                 ! Conductivity {W/m-K}
  7680,                                   ! Density {kg/m3}
  418.4,                                  ! Specific Heat {J/kg-K}
  0.9,                                    ! Thermal Absorptance
  0.7,                                    ! Solar Absorptance
  0.3;                                    ! Visible Absorptance

OS:ComponentCost:LineItem,
  {a8e92f86-d14b-43e5-963b-48082bf3dc46}, ! Handle
  90.1-1999 Res B11 Roof Metal Building,  ! Name
  ,                                       ! Type
  Construction,                           ! Line Item Type
  90.1-1999 Res B11 Roof Metal Building,  ! Item Name
  ,                                       ! Object End Use Key
  ,                                       ! Quantity {dimensionless}
  38.206,                                 ! Material Cost {$}
  CostPerArea;                            ! Material Cost Units

OS:Construction,
  {228df72e-7443-4870-88a5-cd310f957e5a}, ! Handle
  90.1-1999 Res B11 Roof Metal Building,  ! Name
  ,                                       ! Surface Rendering Name
  {b2eccf6a-5121-4bce-bec4-4d5fe7ad10d4}, ! Layer 1
  {1fda29f7-5140-4221-83a0-77ad438ffdcb}; ! Layer 2

OS:Material,
  {1fda29f7-5140-4221-83a0-77ad438ffdcb}, ! Handle
  Roof Insulation [1],                    ! Name
  MediumRough,                            ! Roughness
  0.123533,                               ! Thickness {m}
  0.049,                                  ! Conductivity {W/m-K}
  265,                                    ! Density {kg/m3}
  836.8,                                  ! Specific Heat {J/kg-K}
  0.9,                                    ! Thermal Absorptance
  0.7,                                    ! Solar Absorptance
  0.7;                                    ! Visible Absorptance

