
OS:Version,
  {2c46ee96-d6e0-4940-ba5a-ae13b3746304}, ! Handle
  0.9.3;                                  ! Version Identifier

OS:Construction,
  {b16d26c3-c6f5-43df-860c-ffaf8ec39556}, ! Handle
  90.1-1999 Res B11 Roof Metal Building,  ! Name
  ,                                       ! Surface Rendering Name
  {29854692-8355-4e72-b17e-e7124522e82e}, ! Layer 1
  {62666acd-0fdc-4281-8c84-55b1b4625148}; ! Layer 2

OS:Material,
  {29854692-8355-4e72-b17e-e7124522e82e}, ! Handle
  Metal Roofing,                          ! Name
  MediumSmooth,                           ! Roughness
  0.001524,                               ! Thickness {m}
  45.006,                                 ! Conductivity {W/m-K}
  7680,                                   ! Density {kg/m3}
  418.4,                                  ! Specific Heat {J/kg-K}
  0.9,                                    ! Thermal Absorptance
  0.7,                                    ! Solar Absorptance
  0.3;                                    ! Visible Absorptance

OS:Material,
  {62666acd-0fdc-4281-8c84-55b1b4625148}, ! Handle
  Roof Insulation [1],                    ! Name
  MediumRough,                            ! Roughness
  0.123533,                               ! Thickness {m}
  0.049,                                  ! Conductivity {W/m-K}
  265,                                    ! Density {kg/m3}
  836.8,                                  ! Specific Heat {J/kg-K}
  0.9,                                    ! Thermal Absorptance
  0.7,                                    ! Solar Absorptance
  0.7;                                    ! Visible Absorptance

OS:ComponentCost:LineItem,
  {63c35ed8-8414-44cf-980c-a624a0af3e37}, ! Handle
  90.1-1999 Res B11 Roof Metal Building,  ! Name
  ,                                       ! Type
  Construction,                           ! Line Item Type
  90.1-1999 Res B11 Roof Metal Building,  ! Item Name
  ,                                       ! Object End Use Key
  ,                                       ! Quantity {dimensionless}
  38.206,                                 ! Material Cost {$}
  CostPerArea;                            ! Material Cost Units

OS:ComponentData,
  {608eea23-8fab-4f24-938a-6cedafecef4f}, ! Handle
  Component Data 1,                       ! Name
  {f1a7857d-20cb-4f6e-9927-c283be3cb7af}, ! UUID
  {81eea2f3-6ae8-4e56-95de-fe90d3583b17}, ! Version UUID
  1363981209,                             ! Creation Timestamp
  1363981209,                             ! Version Timestamp
  {b16d26c3-c6f5-43df-860c-ffaf8ec39556}, ! Name of Object 1
  {29854692-8355-4e72-b17e-e7124522e82e}, ! Name of Object 2
  {62666acd-0fdc-4281-8c84-55b1b4625148}, ! Name of Object 3
  {63c35ed8-8414-44cf-980c-a624a0af3e37}; ! Name of Object 4

