
OS:Version,
  {06da5f56-756a-45ba-8d7d-bc0071ea155e}, ! Handle
  0.9.3;                                  ! Version Identifier

OS:Construction,
  {3bd9a21f-c90b-4c2a-965d-0e1b4d5ac99c}, ! Handle
  90.1-2001 Res B11 Roof IEAD,            ! Name
  ,                                       ! Surface Rendering Name
  {561c34e9-507d-4fc3-9cee-233bdf7b9ab9}, ! Layer 1
  {f3995094-11af-4df8-bbd8-1f07ace7a213}, ! Layer 2
  {b1903a37-3d7a-4c1a-ab37-9e5a560ce089}; ! Layer 3

OS:Material,
  {561c34e9-507d-4fc3-9cee-233bdf7b9ab9}, ! Handle
  Roof Membrane,                          ! Name
  VeryRough,                              ! Roughness
  0.0095,                                 ! Thickness {m}
  0.16,                                   ! Conductivity {W/m-K}
  1121.29,                                ! Density {kg/m3}
  1460,                                   ! Specific Heat {J/kg-K}
  0.9,                                    ! Thermal Absorptance
  0.7,                                    ! Solar Absorptance
  0.7;                                    ! Visible Absorptance

OS:Material,
  {f3995094-11af-4df8-bbd8-1f07ace7a213}, ! Handle
  Roof Insulation,                        ! Name
  MediumRough,                            ! Roughness
  0.124958,                               ! Thickness {m}
  0.049,                                  ! Conductivity {W/m-K}
  265,                                    ! Density {kg/m3}
  836.8,                                  ! Specific Heat {J/kg-K}
  0.9,                                    ! Thermal Absorptance
  0.7,                                    ! Solar Absorptance
  0.7;                                    ! Visible Absorptance

OS:Material,
  {b1903a37-3d7a-4c1a-ab37-9e5a560ce089}, ! Handle
  Metal Decking,                          ! Name
  MediumSmooth,                           ! Roughness
  0.001524,                               ! Thickness {m}
  45.006,                                 ! Conductivity {W/m-K}
  7680,                                   ! Density {kg/m3}
  418.4,                                  ! Specific Heat {J/kg-K}
  0.9,                                    ! Thermal Absorptance
  0.7,                                    ! Solar Absorptance
  0.3;                                    ! Visible Absorptance

OS:ComponentCost:LineItem,
  {74d07e1b-fbbf-4697-87ab-0373827ca63d}, ! Handle
  90.1-2001 Res B11 Roof IEAD,            ! Name
  ,                                       ! Type
  Construction,                           ! Line Item Type
  90.1-2001 Res B11 Roof IEAD,            ! Item Name
  ,                                       ! Object End Use Key
  ,                                       ! Quantity {dimensionless}
  49.208,                                 ! Material Cost {$}
  CostPerArea;                            ! Material Cost Units

OS:ComponentData,
  {fc5ea7d5-ab5a-49a6-961e-544ebf0eea38}, ! Handle
  Component Data 1,                       ! Name
  {077781a6-2e04-4280-85b4-cf38ac9dbbbf}, ! UUID
  {5abb8028-1ef1-47c3-9c07-045923efdbc3}, ! Version UUID
  1363981508,                             ! Creation Timestamp
  1363981508,                             ! Version Timestamp
  {3bd9a21f-c90b-4c2a-965d-0e1b4d5ac99c}, ! Name of Object 1
  {561c34e9-507d-4fc3-9cee-233bdf7b9ab9}, ! Name of Object 2
  {f3995094-11af-4df8-bbd8-1f07ace7a213}, ! Name of Object 3
  {b1903a37-3d7a-4c1a-ab37-9e5a560ce089}, ! Name of Object 4
  {74d07e1b-fbbf-4697-87ab-0373827ca63d}; ! Name of Object 5

