
OS:Version,
  {5a929eb1-ca87-42a7-8898-60952d98c346}, ! Handle
  0.9.3;                                  ! Version Identifier

OS:Material,
  {e955193a-95c3-4217-ad0d-d82c94456206}, ! Handle
  Metal Decking,                          ! Name
  MediumSmooth,                           ! Roughness
  0.001524,                               ! Thickness {m}
  45.006,                                 ! Conductivity {W/m-K}
  7680,                                   ! Density {kg/m3}
  418.4,                                  ! Specific Heat {J/kg-K}
  0.9,                                    ! Thermal Absorptance
  0.7,                                    ! Solar Absorptance
  0.3;                                    ! Visible Absorptance

OS:Material,
  {fbf3dc48-a314-4164-90c6-96dc3c5de958}, ! Handle
  Roof Insulation,                        ! Name
  MediumRough,                            ! Roughness
  0.124958,                               ! Thickness {m}
  0.049,                                  ! Conductivity {W/m-K}
  265,                                    ! Density {kg/m3}
  836.8,                                  ! Specific Heat {J/kg-K}
  0.9,                                    ! Thermal Absorptance
  0.7,                                    ! Solar Absorptance
  0.7;                                    ! Visible Absorptance

OS:Construction,
  {365c14ca-dfd0-4147-8ae0-f60fe63b64d2}, ! Handle
  90.1-2001 Res B11 Roof IEAD,            ! Name
  ,                                       ! Surface Rendering Name
  {564befe0-d828-4eed-8107-50ca9dc53861}, ! Layer 1
  {fbf3dc48-a314-4164-90c6-96dc3c5de958}, ! Layer 2
  {e955193a-95c3-4217-ad0d-d82c94456206}; ! Layer 3

OS:Material,
  {564befe0-d828-4eed-8107-50ca9dc53861}, ! Handle
  Roof Membrane,                          ! Name
  VeryRough,                              ! Roughness
  0.0095,                                 ! Thickness {m}
  0.16,                                   ! Conductivity {W/m-K}
  1121.29,                                ! Density {kg/m3}
  1460,                                   ! Specific Heat {J/kg-K}
  0.9,                                    ! Thermal Absorptance
  0.7,                                    ! Solar Absorptance
  0.7;                                    ! Visible Absorptance

OS:ComponentCost:LineItem,
  {ee15d417-f38f-4fc0-b3df-cb3df1a4ae34}, ! Handle
  90.1-2001 Res B11 Roof IEAD,            ! Name
  ,                                       ! Type
  Construction,                           ! Line Item Type
  90.1-2001 Res B11 Roof IEAD,            ! Item Name
  ,                                       ! Object End Use Key
  ,                                       ! Quantity {dimensionless}
  49.208,                                 ! Material Cost {$}
  CostPerArea;                            ! Material Cost Units

