
OS:Version,
  {8958ee8b-31eb-4ea4-be23-16639a41f66b}, ! Handle
  0.9.3;                                  ! Version Identifier

OS:Material,
  {bdd213ad-3ce0-49fe-a6e0-a03c4a204ef4}, ! Handle
  1/2IN Gypsum,                           ! Name
  Smooth,                                 ! Roughness
  0.01271,                                ! Thickness {m}
  0.16,                                   ! Conductivity {W/m-K}
  784.9,                                  ! Density {kg/m3}
  830,                                    ! Specific Heat {J/kg-K}
  0.9,                                    ! Thermal Absorptance
  0.92,                                   ! Solar Absorptance
  0.92;                                   ! Visible Absorptance

OS:Material,
  {3ea43116-0673-49fb-8e54-9a3406a89217}, ! Handle
  Wood Siding,                            ! Name
  MediumSmooth,                           ! Roughness
  0.01,                                   ! Thickness {m}
  0.11,                                   ! Conductivity {W/m-K}
  544.62,                                 ! Density {kg/m3}
  1210,                                   ! Specific Heat {J/kg-K}
  0.9,                                    ! Thermal Absorptance
  0.78,                                   ! Solar Absorptance
  0.78;                                   ! Visible Absorptance

OS:ComponentCost:LineItem,
  {bd4129a2-a508-4afc-9349-880afcdffc98}, ! Handle
  90.1-1999 Nonres B26 Ext Wall Wood-Framed and Other, ! Name
  ,                                       ! Type
  Construction,                           ! Line Item Type
  90.1-1999 Nonres B26 Ext Wall Wood-Framed and Other, ! Item Name
  ,                                       ! Object End Use Key
  ,                                       ! Quantity {dimensionless}
  80.638,                                 ! Material Cost {$}
  CostPerArea;                            ! Material Cost Units

OS:Material,
  {8033e394-90b4-431f-9a9f-8f0208c9e24d}, ! Handle
  Wall Insulation [13],                   ! Name
  MediumRough,                            ! Roughness
  0.140713,                               ! Thickness {m}
  0.045,                                  ! Conductivity {W/m-K}
  265,                                    ! Density {kg/m3}
  836.8,                                  ! Specific Heat {J/kg-K}
  0.9,                                    ! Thermal Absorptance
  0.7,                                    ! Solar Absorptance
  0.7;                                    ! Visible Absorptance

OS:Construction,
  {967350ad-b90b-4357-8eaf-44aaa423d95b}, ! Handle
  90.1-1999 Nonres B26 Ext Wall Wood-Framed and Other, ! Name
  ,                                       ! Surface Rendering Name
  {3ea43116-0673-49fb-8e54-9a3406a89217}, ! Layer 1
  {8033e394-90b4-431f-9a9f-8f0208c9e24d}, ! Layer 2
  {bdd213ad-3ce0-49fe-a6e0-a03c4a204ef4}; ! Layer 3

