
OS:Version,
  {22db27ac-3463-4bac-9277-a955fd201f6a}, ! Handle
  0.9.3;                                  ! Version Identifier

OS:Construction,
  {22c12eed-2bd8-44c4-b2d8-7aba64c78e14}, ! Handle
  90.1 Windows Window Fixed 2614 Vnl-ClrMpr-Ins-Clr, ! Name
  ,                                       ! Surface Rendering Name
  {31ca3c27-7dad-476a-93fe-38f61127d18b}; ! Layer 1

OS:WindowMaterial:Glazing,
  {31ca3c27-7dad-476a-93fe-38f61127d18b}, ! Handle
  Theoretical Glass [348],                ! Name
  SpectralAverage,                        ! Optical Data Type
  ,                                       ! Window Glass Spectral Data Set Name
  0.003,                                  ! Thickness {m}
  0.414369,                               ! Solar Transmittance at Normal Incidence
  0.535631,                               ! Front Side Solar Reflectance at Normal Incidence
  0.535631,                               ! Back Side Solar Reflectance at Normal Incidence
  0.410537,                               ! Visible Transmittance at Normal Incidence
  0.539463,                               ! Front Side Visible Reflectance at Normal Incidence
  0.539463,                               ! Back Side Visible Reflectance at Normal Incidence
  0,                                      ! Infrared Transmittance at Normal Incidence
  0.9,                                    ! Front Side Infrared Hemispherical Emissivity
  0.9,                                    ! Back Side Infrared Hemispherical Emissivity
  0.0144794;                              ! Conductivity {W/m-K}

OS:ComponentCost:LineItem,
  {0e20377c-2aa6-410b-b38d-ea88932cb708}, ! Handle
  90.1 Windows Window Fixed 2614 Vnl-ClrMpr-Ins-Clr, ! Name
  ,                                       ! Type
  Construction,                           ! Line Item Type
  90.1 Windows Window Fixed 2614 Vnl-ClrMpr-Ins-Clr, ! Item Name
  ,                                       ! Object End Use Key
  ,                                       ! Quantity {dimensionless}
  0,                                      ! Material Cost {$}
  CostPerArea;                            ! Material Cost Units

OS:ComponentData,
  {85f1adb3-b777-4096-a4d6-3121827865f5}, ! Handle
  Component Data 1,                       ! Name
  {bdec905c-a0ce-4c59-acab-9356e7534394}, ! UUID
  {49f80c13-3da9-409c-85d9-04a2dcb7310d}, ! Version UUID
  1363981009,                             ! Creation Timestamp
  1363981009,                             ! Version Timestamp
  {22c12eed-2bd8-44c4-b2d8-7aba64c78e14}, ! Name of Object 1
  {31ca3c27-7dad-476a-93fe-38f61127d18b}, ! Name of Object 2
  {0e20377c-2aa6-410b-b38d-ea88932cb708}; ! Name of Object 3

