
OS:Version,
  {d6415a00-ffd5-40f7-8a6f-4c605b7d4823}, ! Handle
  0.9.3;                                  ! Version Identifier

OS:Construction,
  {22d9ae61-21d8-4955-9ff2-c2ceb923b106}, ! Handle
  90.1 Windows Window Fixed 2431 Brk-Clr-Ins-ClrSpe, ! Name
  ,                                       ! Surface Rendering Name
  {ee8c100a-2138-47d5-b800-bc818211d200}; ! Layer 1

OS:WindowMaterial:Glazing,
  {ee8c100a-2138-47d5-b800-bc818211d200}, ! Handle
  Theoretical Glass [290],                ! Name
  SpectralAverage,                        ! Optical Data Type
  ,                                       ! Window Glass Spectral Data Set Name
  0.003,                                  ! Thickness {m}
  0.55373,                                ! Solar Transmittance at Normal Incidence
  0.39627,                                ! Front Side Solar Reflectance at Normal Incidence
  0.39627,                                ! Back Side Solar Reflectance at Normal Incidence
  0.659809,                               ! Visible Transmittance at Normal Incidence
  0.290191,                               ! Front Side Visible Reflectance at Normal Incidence
  0.290191,                               ! Back Side Visible Reflectance at Normal Incidence
  0,                                      ! Infrared Transmittance at Normal Incidence
  0.9,                                    ! Front Side Infrared Hemispherical Emissivity
  0.9,                                    ! Back Side Infrared Hemispherical Emissivity
  0.0125273;                              ! Conductivity {W/m-K}

OS:ComponentCost:LineItem,
  {44401510-1dbe-4244-94dd-ba7f9dd46935}, ! Handle
  90.1 Windows Window Fixed 2431 Brk-Clr-Ins-ClrSpe, ! Name
  ,                                       ! Type
  Construction,                           ! Line Item Type
  90.1 Windows Window Fixed 2431 Brk-Clr-Ins-ClrSpe, ! Item Name
  ,                                       ! Object End Use Key
  ,                                       ! Quantity {dimensionless}
  0,                                      ! Material Cost {$}
  CostPerArea;                            ! Material Cost Units

