
OS:Version,
  {13537e95-f1a5-4285-967c-bc2f05134302}, ! Handle
  0.9.3;                                  ! Version Identifier

OS:Construction,
  {b35dbe04-6f1e-40dc-85a4-e57ae81fb771}, ! Handle
  90.1-1999 Res B3 Ext Wall Wood-Framed and Other, ! Name
  ,                                       ! Surface Rendering Name
  {ff7fe2ed-af0e-484b-9a34-4787f1b174af}, ! Layer 1
  {ee5c35ab-361a-44e7-bfae-4b7eff63cf27}, ! Layer 2
  {80b32297-d3ec-4f43-8e90-1061a3cb2b1c}; ! Layer 3

OS:Material,
  {ff7fe2ed-af0e-484b-9a34-4787f1b174af}, ! Handle
  Wood Siding,                            ! Name
  MediumSmooth,                           ! Roughness
  0.01,                                   ! Thickness {m}
  0.11,                                   ! Conductivity {W/m-K}
  544.62,                                 ! Density {kg/m3}
  1210,                                   ! Specific Heat {J/kg-K}
  0.9,                                    ! Thermal Absorptance
  0.78,                                   ! Solar Absorptance
  0.78;                                   ! Visible Absorptance

OS:Material,
  {ee5c35ab-361a-44e7-bfae-4b7eff63cf27}, ! Handle
  Wall Insulation [2],                    ! Name
  MediumRough,                            ! Roughness
  0.0746874,                              ! Thickness {m}
  0.045,                                  ! Conductivity {W/m-K}
  265,                                    ! Density {kg/m3}
  836.8,                                  ! Specific Heat {J/kg-K}
  0.9,                                    ! Thermal Absorptance
  0.7,                                    ! Solar Absorptance
  0.7;                                    ! Visible Absorptance

OS:Material,
  {80b32297-d3ec-4f43-8e90-1061a3cb2b1c}, ! Handle
  1/2IN Gypsum,                           ! Name
  Smooth,                                 ! Roughness
  0.01271,                                ! Thickness {m}
  0.16,                                   ! Conductivity {W/m-K}
  784.9,                                  ! Density {kg/m3}
  830,                                    ! Specific Heat {J/kg-K}
  0.9,                                    ! Thermal Absorptance
  0.92,                                   ! Solar Absorptance
  0.92;                                   ! Visible Absorptance

OS:ComponentCost:LineItem,
  {ddc6683a-2ed7-486d-ac05-1b02a34d11a3}, ! Handle
  90.1-1999 Res B3 Ext Wall Wood-Framed and Other, ! Name
  ,                                       ! Type
  Construction,                           ! Line Item Type
  90.1-1999 Res B3 Ext Wall Wood-Framed and Other, ! Item Name
  ,                                       ! Object End Use Key
  ,                                       ! Quantity {dimensionless}
  73.056,                                 ! Material Cost {$}
  CostPerArea;                            ! Material Cost Units

