
OS:Version,
  {456637f3-3af7-4214-95a0-9a8918bdf7b5}, ! Handle
  0.9.3;                                  ! Version Identifier

OS:Construction,
  {10b0100c-0346-4274-bca2-7171d9e12352}, ! Handle
  90.1-1999 Res B3 Ext Wall Wood-Framed and Other, ! Name
  ,                                       ! Surface Rendering Name
  {979ed559-3867-466d-b68e-c7786cb2bc54}, ! Layer 1
  {e802dc2f-7007-47ec-a574-67d8fe5e1a7f}, ! Layer 2
  {bc7111b9-a119-434a-9c7e-473fc80e6317}; ! Layer 3

OS:Material,
  {979ed559-3867-466d-b68e-c7786cb2bc54}, ! Handle
  Wood Siding,                            ! Name
  MediumSmooth,                           ! Roughness
  0.01,                                   ! Thickness {m}
  0.11,                                   ! Conductivity {W/m-K}
  544.62,                                 ! Density {kg/m3}
  1210,                                   ! Specific Heat {J/kg-K}
  0.9,                                    ! Thermal Absorptance
  0.78,                                   ! Solar Absorptance
  0.78;                                   ! Visible Absorptance

OS:Material,
  {e802dc2f-7007-47ec-a574-67d8fe5e1a7f}, ! Handle
  Wall Insulation [2],                    ! Name
  MediumRough,                            ! Roughness
  0.0746874,                              ! Thickness {m}
  0.045,                                  ! Conductivity {W/m-K}
  265,                                    ! Density {kg/m3}
  836.8,                                  ! Specific Heat {J/kg-K}
  0.9,                                    ! Thermal Absorptance
  0.7,                                    ! Solar Absorptance
  0.7;                                    ! Visible Absorptance

OS:Material,
  {bc7111b9-a119-434a-9c7e-473fc80e6317}, ! Handle
  1/2IN Gypsum,                           ! Name
  Smooth,                                 ! Roughness
  0.01271,                                ! Thickness {m}
  0.16,                                   ! Conductivity {W/m-K}
  784.9,                                  ! Density {kg/m3}
  830,                                    ! Specific Heat {J/kg-K}
  0.9,                                    ! Thermal Absorptance
  0.92,                                   ! Solar Absorptance
  0.92;                                   ! Visible Absorptance

OS:ComponentCost:LineItem,
  {ccd3adc8-2db5-464c-848f-b87a12e3091c}, ! Handle
  90.1-1999 Res B3 Ext Wall Wood-Framed and Other, ! Name
  ,                                       ! Type
  Construction,                           ! Line Item Type
  90.1-1999 Res B3 Ext Wall Wood-Framed and Other, ! Item Name
  ,                                       ! Object End Use Key
  ,                                       ! Quantity {dimensionless}
  73.056,                                 ! Material Cost {$}
  CostPerArea;                            ! Material Cost Units

OS:ComponentData,
  {1f2eafc5-d1d1-4cb2-ad46-d32d94be1dcc}, ! Handle
  Component Data 1,                       ! Name
  {377beb4c-33ff-41e2-8833-deb04c6ece9a}, ! UUID
  {a90e810a-fd0a-4a86-92e1-9b12b94a7d69}, ! Version UUID
  1363981173,                             ! Creation Timestamp
  1363981173,                             ! Version Timestamp
  {10b0100c-0346-4274-bca2-7171d9e12352}, ! Name of Object 1
  {979ed559-3867-466d-b68e-c7786cb2bc54}, ! Name of Object 2
  {e802dc2f-7007-47ec-a574-67d8fe5e1a7f}, ! Name of Object 3
  {bc7111b9-a119-434a-9c7e-473fc80e6317}, ! Name of Object 4
  {ccd3adc8-2db5-464c-848f-b87a12e3091c}; ! Name of Object 5

