
! 
OS:Version,
  {8503bb35-3288-4176-9c41-752f3d976c4b}, !- Handle
  1.13.0;                                 !- Version Identifier


! 
OS:Material,
  {be3dbc72-9bae-46b9-8771-ca744a2cec23}, !- Handle
  Aislamiento: SATE
WEBER: weber.therm placa EPS grafito 120 (0.160 m)
R: 5.0 m2K/W,                             !- Name
  MediumRough,                                 !- Roughness
  0.16,                                    !- Thickness {m}
  0.032,                                    !- Conductivity {W/m-K}
  15.0,                                    !- Density {kg/m3}
  800.0,                                    !- Specific Heat {J/kg-K}
  0.9,                                    !- Thermal Absorptance
  0.6,                                    !- Solar Absorptance
  0.6;                                    !- Visible Absorptance

