
OS:Version,
  {fb75d11f-87b6-4362-afa0-6fc2e01f8f8f}, ! Handle
  0.9.3;                                  ! Version Identifier

OS:ComponentCost:LineItem,
  {97544e8a-6198-4558-a44e-9b14d3b0fe22}, ! Handle
  Title 24-2008 Nonres 13 Ext Wall Wood-Framed and Other, ! Name
  ,                                       ! Type
  Construction,                           ! Line Item Type
  Title 24-2008 Nonres 13 Ext Wall Wood-Framed and Other, ! Item Name
  ,                                       ! Object End Use Key
  ,                                       ! Quantity {dimensionless}
  140.526,                                ! Material Cost {$}
  CostPerArea;                            ! Material Cost Units

OS:Material,
  {07223980-51d0-4927-8f78-0eb2f63f4437}, ! Handle
  1/2IN Gypsum,                           ! Name
  Smooth,                                 ! Roughness
  0.01271,                                ! Thickness {m}
  0.16,                                   ! Conductivity {W/m-K}
  784.9,                                  ! Density {kg/m3}
  830,                                    ! Specific Heat {J/kg-K}
  0.9,                                    ! Thermal Absorptance
  0.92,                                   ! Solar Absorptance
  0.92;                                   ! Visible Absorptance

OS:Material,
  {fd61a97f-b497-4938-81ec-caf5881c86f1}, ! Handle
  Wall Insulation [159],                  ! Name
  MediumRough,                            ! Roughness
  0.0812,                                 ! Thickness {m}
  0.045,                                  ! Conductivity {W/m-K}
  265,                                    ! Density {kg/m3}
  836.8,                                  ! Specific Heat {J/kg-K}
  0.9,                                    ! Thermal Absorptance
  0.7,                                    ! Solar Absorptance
  0.7;                                    ! Visible Absorptance

OS:Material,
  {a012434e-7602-4c6c-ae03-bc1d29f5a2e5}, ! Handle
  Wood Siding,                            ! Name
  MediumSmooth,                           ! Roughness
  0.01,                                   ! Thickness {m}
  0.11,                                   ! Conductivity {W/m-K}
  544.62,                                 ! Density {kg/m3}
  1210,                                   ! Specific Heat {J/kg-K}
  0.9,                                    ! Thermal Absorptance
  0.78,                                   ! Solar Absorptance
  0.78;                                   ! Visible Absorptance

OS:Construction,
  {3a2d0c65-e42d-47eb-a6f6-bb25a79a6b8d}, ! Handle
  Title 24-2008 Nonres 13 Ext Wall Wood-Framed and Other, ! Name
  ,                                       ! Surface Rendering Name
  {a012434e-7602-4c6c-ae03-bc1d29f5a2e5}, ! Layer 1
  {fd61a97f-b497-4938-81ec-caf5881c86f1}, ! Layer 2
  {07223980-51d0-4927-8f78-0eb2f63f4437}; ! Layer 3

