
OS:Version,
  {2a1ec191-d3fa-4339-8ec2-6035364be7d5}, ! Handle
  0.9.3;                                  ! Version Identifier

OS:Construction,
  {16401456-b3d0-416e-a3a3-0b9363588b4c}, !- Handle
  STADIP 1010.2 DIAMANT con COOL-LITE ST067,                         !- Name
  ,                                       !- Surface Rendering Name
  {1cd961a7-cac5-4c42-bd8a-2a32b71523ae}; !- Layer 1  
  



        
OS:WindowMaterial:SimpleGlazingSystem,
  {1cd961a7-cac5-4c42-bd8a-2a32b71523ae}, !- Handle
  STADIP 1010.2 DIAMANT con COOL-LITE ST067, !- Name
  5.2,                                    !- U-Factor {W/m2-K}
  0.68,                                    !- Solar Heat Gain Coefficient
  0.72;                                    !- Visible Transmittance     


OS:ComponentCost:LineItem,
  {20c6da4d-6e44-4444-8b79-4bdc613059b3}, ! Handle
  STADIP 1010.2 DIAMANT con COOL-LITE ST067,        ! Name
  ,                                       ! Type
  Construction,                           ! Line Item Type
  STADIP 1010.2 DIAMANT con COOL-LITE ST067,        ! Item Name
  ,                                       ! Object End Use Key
  ,                                       ! Quantity {dimensionless}
  600.0,                                ! Material Cost {$}
  CostPerArea;                            ! Material Cost Units



OS:ComponentData,
  {d20e887d-e2f9-43fd-9afa-f6c260b0d583}, ! Handle
  Component Data 1,                       ! Name
  {e05dd885-9737-47f9-b2a1-27f772b86e4f}, ! UUID
  {146268d2-2de4-44a6-a842-91743e9f917d}, ! Version UUID
  1487924012,                             ! Creation Timestamp
  1487924012,                             ! Version Timestamp
  {16401456-b3d0-416e-a3a3-0b9363588b4c}, ! Name of Object 1
  {1cd961a7-cac5-4c42-bd8a-2a32b71523ae}, ! Name of Object 2
  {20c6da4d-6e44-4444-8b79-4bdc613059b3}; ! Name of Object 3

  

