
! 
OS:Version,
  {9c37d538-db0d-4a47-9850-5bede7e76bd5}, !- Handle
  1.13.0;                                 !- Version Identifier


! {"nombreProductoCorto": "STADIP 1010.2 DIAMANT con COOL-LITE ST067", "codigoEAN": "", "handle": "1cd961a7-cac5-4c42-bd8a-2a32b71523ae", "g": 0.68, "tV": 0.72, "u": 5.2, "nombreProducto": "STADIP 1010.2 DIAMANT con COOL-LITE ST067\nU:5.2 W/m2K - g:0.68 - Tv: 0.72"}
OS:WindowMaterial:SimpleGlazingSystem,
  {1cd961a7-cac5-4c42-bd8a-2a32b71523ae}, !- Handle
  STADIP 1010.2 DIAMANT con COOL-LITE ST067, !- Name
  5.2,                                    !- U-Factor {W/m2-K}
  0.68,                                    !- Solar Heat Gain Coefficient
  0.72;                                    !- Visible Transmittance     
  
  
OS:Construction,
  {adb76598-54ef-4260-ab2a-1532b0e1a796}, !- Handle
  STADIP 1010.2 DIAMANT con COOL-LITE ST067,                         !- Name
  ,                                       !- Surface Rendering Name
  {1cd961a7-cac5-4c42-bd8a-2a32b71523ae}; !- Layer 1  

