
OS:Version,
  {bcb38723-4d4e-4717-91f9-cea8cba006e2}, ! Handle
  0.9.3;                                  ! Version Identifier

OS:ComponentCost:LineItem,
  {b28327a8-a020-4cd8-b291-f7eb4fa1d372}, ! Handle
  90.1-2001 Nonres B26 Skylight without Curb, ! Name
  ,                                       ! Type
  Construction,                           ! Line Item Type
  90.1-2001 Nonres B26 Skylight without Curb, ! Item Name
  ,                                       ! Object End Use Key
  ,                                       ! Quantity {dimensionless}
  537.952,                                ! Material Cost {$}
  CostPerArea;                            ! Material Cost Units

OS:Construction,
  {0912f519-a481-43de-8472-9c6f9c8d31e9}, ! Handle
  90.1-2001 Nonres B26 Skylight without Curb, ! Name
  ,                                       ! Surface Rendering Name
  {56241d1f-aae3-4986-9856-159f7f7fe5fa}; ! Layer 1

OS:WindowMaterial:Glazing,
  {56241d1f-aae3-4986-9856-159f7f7fe5fa}, ! Handle
  Theoretical Glass [52],                 ! Name
  SpectralAverage,                        ! Optical Data Type
  ,                                       ! Window Glass Spectral Data Set Name
  0.003,                                  ! Thickness {m}
  0.482947,                               ! Solar Transmittance at Normal Incidence
  0.467053,                               ! Front Side Solar Reflectance at Normal Incidence
  0.467053,                               ! Back Side Solar Reflectance at Normal Incidence
  0.529698,                               ! Visible Transmittance at Normal Incidence
  0.420302,                               ! Front Side Visible Reflectance at Normal Incidence
  0.420302,                               ! Back Side Visible Reflectance at Normal Incidence
  0,                                      ! Infrared Transmittance at Normal Incidence
  0.9,                                    ! Front Side Infrared Hemispherical Emissivity
  0.9,                                    ! Back Side Infrared Hemispherical Emissivity
  0.0185413;                              ! Conductivity {W/m-K}

