
OS:Version,
  {32394baf-c12c-432b-9089-181b30be1847}, ! Handle
  0.9.3;                                  ! Version Identifier

OS:Construction,
  {2ebdff7a-1201-4351-859c-84a6a85bf3a9}, ! Handle
  90.1-2001 Nonres B26 Skylight without Curb, ! Name
  ,                                       ! Surface Rendering Name
  {4c27a07e-7305-44c9-82b4-c044aff5eafb}; ! Layer 1

OS:WindowMaterial:Glazing,
  {4c27a07e-7305-44c9-82b4-c044aff5eafb}, ! Handle
  Theoretical Glass [52],                 ! Name
  SpectralAverage,                        ! Optical Data Type
  ,                                       ! Window Glass Spectral Data Set Name
  0.003,                                  ! Thickness {m}
  0.482947,                               ! Solar Transmittance at Normal Incidence
  0.467053,                               ! Front Side Solar Reflectance at Normal Incidence
  0.467053,                               ! Back Side Solar Reflectance at Normal Incidence
  0.529698,                               ! Visible Transmittance at Normal Incidence
  0.420302,                               ! Front Side Visible Reflectance at Normal Incidence
  0.420302,                               ! Back Side Visible Reflectance at Normal Incidence
  0,                                      ! Infrared Transmittance at Normal Incidence
  0.9,                                    ! Front Side Infrared Hemispherical Emissivity
  0.9,                                    ! Back Side Infrared Hemispherical Emissivity
  0.0185413;                              ! Conductivity {W/m-K}

OS:ComponentCost:LineItem,
  {c608c379-7de7-4e2c-8ca6-fa6458a5f4db}, ! Handle
  90.1-2001 Nonres B26 Skylight without Curb, ! Name
  ,                                       ! Type
  Construction,                           ! Line Item Type
  90.1-2001 Nonres B26 Skylight without Curb, ! Item Name
  ,                                       ! Object End Use Key
  ,                                       ! Quantity {dimensionless}
  537.952,                                ! Material Cost {$}
  CostPerArea;                            ! Material Cost Units

OS:ComponentData,
  {157beec9-2953-4f12-ae7a-0ab19507f123}, ! Handle
  Component Data 1,                       ! Name
  {f558afce-8f10-4140-ac5e-20d81c3e900b}, ! UUID
  {adf69b87-8de1-41bd-99bf-4eff7c9b40fc}, ! Version UUID
  1363981444,                             ! Creation Timestamp
  1363981444,                             ! Version Timestamp
  {2ebdff7a-1201-4351-859c-84a6a85bf3a9}, ! Name of Object 1
  {4c27a07e-7305-44c9-82b4-c044aff5eafb}, ! Name of Object 2
  {c608c379-7de7-4e2c-8ca6-fa6458a5f4db}; ! Name of Object 3

