
OS:Version,
  {56b743a6-8f8e-42ff-9bf0-cd4171d754bd}, ! Handle
  0.9.3;                                  ! Version Identifier

OS:Construction,
  {2fdd7faa-2509-4aa0-b107-641e1fe9bc8b}, ! Handle
  90.1-2007 Res 2A Window Nonmetal framing, ! Name
  ,                                       ! Surface Rendering Name
  {b249e26a-2494-4167-baa0-8127074ee221}; ! Layer 1

OS:WindowMaterial:Glazing,
  {b249e26a-2494-4167-baa0-8127074ee221}, ! Handle
  Theoretical Glass [170],                ! Name
  SpectralAverage,                        ! Optical Data Type
  ,                                       ! Window Glass Spectral Data Set Name
  0.003,                                  ! Thickness {m}
  0.241851,                               ! Solar Transmittance at Normal Incidence
  0.708149,                               ! Front Side Solar Reflectance at Normal Incidence
  0.708149,                               ! Back Side Solar Reflectance at Normal Incidence
  0.251212,                               ! Visible Transmittance at Normal Incidence
  0.698788,                               ! Front Side Visible Reflectance at Normal Incidence
  0.698788,                               ! Back Side Visible Reflectance at Normal Incidence
  0,                                      ! Infrared Transmittance at Normal Incidence
  0.9,                                    ! Front Side Infrared Hemispherical Emissivity
  0.9,                                    ! Back Side Infrared Hemispherical Emissivity
  0.037738;                               ! Conductivity {W/m-K}

OS:ComponentCost:LineItem,
  {5c8e01d4-8e7e-4074-af64-e1f4ae86ba0d}, ! Handle
  90.1-2007 Res 2A Window Nonmetal framing, ! Name
  ,                                       ! Type
  Construction,                           ! Line Item Type
  90.1-2007 Res 2A Window Nonmetal framing, ! Item Name
  ,                                       ! Object End Use Key
  ,                                       ! Quantity {dimensionless}
  600.037,                                ! Material Cost {$}
  CostPerArea;                            ! Material Cost Units

