
OS:Version,
  {a82ef4d8-ac26-44ff-a7f3-894653c5a575}, ! Handle
  0.9.3;                                  ! Version Identifier

OS:Material,
  {4c652d76-ac58-4e52-bdea-09d111efe6a1}, ! Handle
  Roof Insulation,                        ! Name
  MediumRough,                            ! Roughness
  0.124958,                               ! Thickness {m}
  0.049,                                  ! Conductivity {W/m-K}
  265,                                    ! Density {kg/m3}
  836.8,                                  ! Specific Heat {J/kg-K}
  0.9,                                    ! Thermal Absorptance
  0.7,                                    ! Solar Absorptance
  0.7;                                    ! Visible Absorptance

OS:Material,
  {83ae3121-896c-42ff-a6ce-070238ff3605}, ! Handle
  Metal Decking,                          ! Name
  MediumSmooth,                           ! Roughness
  0.001524,                               ! Thickness {m}
  45.006,                                 ! Conductivity {W/m-K}
  7680,                                   ! Density {kg/m3}
  418.4,                                  ! Specific Heat {J/kg-K}
  0.9,                                    ! Thermal Absorptance
  0.7,                                    ! Solar Absorptance
  0.3;                                    ! Visible Absorptance

OS:Construction,
  {b91c7cee-70e1-4954-bb48-a842f7421d5b}, ! Handle
  90.1-2001 Nonres B19 Roof IEAD,         ! Name
  ,                                       ! Surface Rendering Name
  {abf4e24e-fe22-4beb-92c5-7ddf8c6e0b48}, ! Layer 1
  {4c652d76-ac58-4e52-bdea-09d111efe6a1}, ! Layer 2
  {83ae3121-896c-42ff-a6ce-070238ff3605}; ! Layer 3

OS:Material,
  {abf4e24e-fe22-4beb-92c5-7ddf8c6e0b48}, ! Handle
  Roof Membrane,                          ! Name
  VeryRough,                              ! Roughness
  0.0095,                                 ! Thickness {m}
  0.16,                                   ! Conductivity {W/m-K}
  1121.29,                                ! Density {kg/m3}
  1460,                                   ! Specific Heat {J/kg-K}
  0.9,                                    ! Thermal Absorptance
  0.7,                                    ! Solar Absorptance
  0.7;                                    ! Visible Absorptance

OS:ComponentCost:LineItem,
  {b208e972-5f84-44ab-9550-1e1a36a6382d}, ! Handle
  90.1-2001 Nonres B19 Roof IEAD,         ! Name
  ,                                       ! Type
  Construction,                           ! Line Item Type
  90.1-2001 Nonres B19 Roof IEAD,         ! Item Name
  ,                                       ! Object End Use Key
  ,                                       ! Quantity {dimensionless}
  49.208,                                 ! Material Cost {$}
  CostPerArea;                            ! Material Cost Units

