
OS:Version,
  {03fcb353-cb0a-4316-b47e-de31d2ef7b53}, ! Handle
  0.9.3;                                  ! Version Identifier

OS:Material,
  {ab43f245-8966-4d95-a158-dec19efd77a2}, ! Handle
  1/2IN Gypsum,                           ! Name
  Smooth,                                 ! Roughness
  0.01271,                                ! Thickness {m}
  0.16,                                   ! Conductivity {W/m-K}
  784.9,                                  ! Density {kg/m3}
  830,                                    ! Specific Heat {J/kg-K}
  0.9,                                    ! Thermal Absorptance
  0.92,                                   ! Solar Absorptance
  0.92;                                   ! Visible Absorptance

OS:Material,
  {b10ae2dd-1ff2-46ca-b06f-6aa2f3d25921}, ! Handle
  Wood Siding,                            ! Name
  MediumSmooth,                           ! Roughness
  0.01,                                   ! Thickness {m}
  0.11,                                   ! Conductivity {W/m-K}
  544.62,                                 ! Density {kg/m3}
  1210,                                   ! Specific Heat {J/kg-K}
  0.9,                                    ! Thermal Absorptance
  0.78,                                   ! Solar Absorptance
  0.78;                                   ! Visible Absorptance

OS:ComponentCost:LineItem,
  {6c310eca-3502-4b02-a32d-6c53cc8e4a28}, ! Handle
  90.1-2001 Res B2 Ext Wall Wood-Framed and Other, ! Name
  ,                                       ! Type
  Construction,                           ! Line Item Type
  90.1-2001 Res B2 Ext Wall Wood-Framed and Other, ! Item Name
  ,                                       ! Object End Use Key
  ,                                       ! Quantity {dimensionless}
  73.056,                                 ! Material Cost {$}
  CostPerArea;                            ! Material Cost Units

OS:Material,
  {04c8c59c-7274-4d62-bdca-1f5174977e6e}, ! Handle
  Wall Insulation [2],                    ! Name
  MediumRough,                            ! Roughness
  0.0746874,                              ! Thickness {m}
  0.045,                                  ! Conductivity {W/m-K}
  265,                                    ! Density {kg/m3}
  836.8,                                  ! Specific Heat {J/kg-K}
  0.9,                                    ! Thermal Absorptance
  0.7,                                    ! Solar Absorptance
  0.7;                                    ! Visible Absorptance

OS:Construction,
  {594cc736-6aa1-4fd9-b3bb-0ca861015bdb}, ! Handle
  90.1-2001 Res B2 Ext Wall Wood-Framed and Other, ! Name
  ,                                       ! Surface Rendering Name
  {b10ae2dd-1ff2-46ca-b06f-6aa2f3d25921}, ! Layer 1
  {04c8c59c-7274-4d62-bdca-1f5174977e6e}, ! Layer 2
  {ab43f245-8966-4d95-a158-dec19efd77a2}; ! Layer 3

