
OS:Version,
  {e99d9602-617b-4d3c-9c81-0ed6b4a0dd95}, ! Handle
  0.9.3;                                  ! Version Identifier

OS:Construction,
  {1f03f8c4-e805-482f-9ca8-6d11617ff40b}, ! Handle
  90.1-1999 Nonres B5 Ext Slab Unheated - 4in Slab without Carpet, ! Name
  ,                                       ! Surface Rendering Name
  {20164c62-cb8e-41f6-9233-8567e4de6f1b}; ! Layer 1

OS:Material,
  {20164c62-cb8e-41f6-9233-8567e4de6f1b}, ! Handle
  MAT-CC05 4 HW CONCRETE,                 ! Name
  Rough,                                  ! Roughness
  0.1016,                                 ! Thickness {m}
  1.311,                                  ! Conductivity {W/m-K}
  2240,                                   ! Density {kg/m3}
  836.8,                                  ! Specific Heat {J/kg-K}
  0.9,                                    ! Thermal Absorptance
  0.7,                                    ! Solar Absorptance
  0.7;                                    ! Visible Absorptance

OS:ComponentCost:LineItem,
  {b93b9a99-87c2-428e-b2b6-18c8ff5ab178}, ! Handle
  90.1-1999 Nonres B5 Ext Slab Unheated - 4in Slab without Carpet, ! Name
  ,                                       ! Type
  Construction,                           ! Line Item Type
  90.1-1999 Nonres B5 Ext Slab Unheated - 4in Slab without Carpet, ! Item Name
  ,                                       ! Object End Use Key
  ,                                       ! Quantity {dimensionless}
  45.52,                                  ! Material Cost {$}
  CostPerArea;                            ! Material Cost Units

