
OS:Version,
  {e15bb720-403f-4554-8d9a-12d6f7c95552}, ! Handle
  0.9.3;                                  ! Version Identifier

OS:Material,
  {acceb202-53bc-41e4-b0be-7815e3698140}, ! Handle
  Wall Insulation,                        ! Name
  MediumRough,                            ! Roughness
  0.0598725,                              ! Thickness {m}
  0.045,                                  ! Conductivity {W/m-K}
  265,                                    ! Density {kg/m3}
  836.8,                                  ! Specific Heat {J/kg-K}
  0.9,                                    ! Thermal Absorptance
  0.7,                                    ! Solar Absorptance
  0.7;                                    ! Visible Absorptance

OS:ComponentCost:LineItem,
  {59006fa7-446d-4aca-a032-a72741f11ed9}, ! Handle
  90.1-2007 Res 4B Ext Wall Metal Building, ! Name
  ,                                       ! Type
  Construction,                           ! Line Item Type
  90.1-2007 Res 4B Ext Wall Metal Building, ! Item Name
  ,                                       ! Object End Use Key
  ,                                       ! Quantity {dimensionless}
  98.78,                                  ! Material Cost {$}
  CostPerArea;                            ! Material Cost Units

OS:Material,
  {078ab1c6-9ae2-4e95-a7ee-0396a23eedd9}, ! Handle
  Metal Siding,                           ! Name
  Smooth,                                 ! Roughness
  0.0015,                                 ! Thickness {m}
  44.96,                                  ! Conductivity {W/m-K}
  7688.86,                                ! Density {kg/m3}
  410,                                    ! Specific Heat {J/kg-K}
  0.9,                                    ! Thermal Absorptance
  0.2,                                    ! Solar Absorptance
  0.2;                                    ! Visible Absorptance

OS:Construction,
  {837d8457-dd3d-4258-804a-2fbb4b328122}, ! Handle
  90.1-2007 Res 4B Ext Wall Metal Building, ! Name
  ,                                       ! Surface Rendering Name
  {078ab1c6-9ae2-4e95-a7ee-0396a23eedd9}, ! Layer 1
  {acceb202-53bc-41e4-b0be-7815e3698140}, ! Layer 2
  {4aa1040f-58b4-4b4b-b6ac-9943126ebd3b}; ! Layer 3

OS:Material,
  {4aa1040f-58b4-4b4b-b6ac-9943126ebd3b}, ! Handle
  1/2IN Gypsum,                           ! Name
  Smooth,                                 ! Roughness
  0.01271,                                ! Thickness {m}
  0.16,                                   ! Conductivity {W/m-K}
  784.9,                                  ! Density {kg/m3}
  830,                                    ! Specific Heat {J/kg-K}
  0.9,                                    ! Thermal Absorptance
  0.92,                                   ! Solar Absorptance
  0.92;                                   ! Visible Absorptance

