
OS:Version,
  {88ac9ce5-c249-4962-b0d1-5c0f682d1bd2}, ! Handle
  0.9.3;                                  ! Version Identifier

OS:Construction,
  {f6f071eb-c796-49b3-b027-ab535e74b27f}, ! Handle
  90.1-1999 Nonres B15 Roof Metal Building, ! Name
  ,                                       ! Surface Rendering Name
  {3fbacd8d-e50a-4005-bd4e-9a983cd089f5}, ! Layer 1
  {165b4ff5-7f0c-4eab-97c4-94aa1567c4c5}; ! Layer 2

OS:Material,
  {3fbacd8d-e50a-4005-bd4e-9a983cd089f5}, ! Handle
  Metal Roofing,                          ! Name
  MediumSmooth,                           ! Roughness
  0.001524,                               ! Thickness {m}
  45.006,                                 ! Conductivity {W/m-K}
  7680,                                   ! Density {kg/m3}
  418.4,                                  ! Specific Heat {J/kg-K}
  0.9,                                    ! Thermal Absorptance
  0.7,                                    ! Solar Absorptance
  0.3;                                    ! Visible Absorptance

OS:Material,
  {165b4ff5-7f0c-4eab-97c4-94aa1567c4c5}, ! Handle
  Roof Insulation [1],                    ! Name
  MediumRough,                            ! Roughness
  0.123533,                               ! Thickness {m}
  0.049,                                  ! Conductivity {W/m-K}
  265,                                    ! Density {kg/m3}
  836.8,                                  ! Specific Heat {J/kg-K}
  0.9,                                    ! Thermal Absorptance
  0.7,                                    ! Solar Absorptance
  0.7;                                    ! Visible Absorptance

OS:ComponentCost:LineItem,
  {fe0b29ee-7ad0-4fde-86cb-8d5c7335d126}, ! Handle
  90.1-1999 Nonres B15 Roof Metal Building, ! Name
  ,                                       ! Type
  Construction,                           ! Line Item Type
  90.1-1999 Nonres B15 Roof Metal Building, ! Item Name
  ,                                       ! Object End Use Key
  ,                                       ! Quantity {dimensionless}
  38.206,                                 ! Material Cost {$}
  CostPerArea;                            ! Material Cost Units

