
OS:Version,
  {c1de9131-8b05-4bfb-b66d-d04fe941edbe}, ! Handle
  0.9.3;                                  ! Version Identifier

OS:Material,
  {73b0f022-6bfd-4dac-9533-a338985c5e2f}, ! Handle
  8IN Concrete HW,                        ! Name
  MediumRough,                            ! Roughness
  0.2033,                                 ! Thickness {m}
  1.7296,                                 ! Conductivity {W/m-K}
  2243,                                   ! Density {kg/m3}
  837,                                    ! Specific Heat {J/kg-K}
  0.9,                                    ! Thermal Absorptance
  0.65,                                   ! Solar Absorptance
  0.65;                                   ! Visible Absorptance

OS:Material,
  {e9519bce-fa0a-4d7b-a5f1-586f18cdf9fe}, ! Handle
  1/2IN Gypsum,                           ! Name
  Smooth,                                 ! Roughness
  0.01271,                                ! Thickness {m}
  0.16,                                   ! Conductivity {W/m-K}
  784.9,                                  ! Density {kg/m3}
  830,                                    ! Specific Heat {J/kg-K}
  0.9,                                    ! Thermal Absorptance
  0.92,                                   ! Solar Absorptance
  0.92;                                   ! Visible Absorptance

OS:Material,
  {13a5e0c3-4b0b-426d-a46b-22e11c2cd727}, ! Handle
  Wall Insulation [63],                   ! Name
  MediumRough,                            ! Roughness
  0.108236,                               ! Thickness {m}
  0.0432,                                 ! Conductivity {W/m-K}
  91,                                     ! Density {kg/m3}
  837,                                    ! Specific Heat {J/kg-K}
  0.9,                                    ! Thermal Absorptance
  0.5,                                    ! Solar Absorptance
  0.5;                                    ! Visible Absorptance

OS:ComponentCost:LineItem,
  {66c461bb-c230-4d85-a9d7-9391ab9c5934}, ! Handle
  AEDG SHC Nonres 7A Ext Wall Mass,       ! Name
  ,                                       ! Type
  Construction,                           ! Line Item Type
  AEDG SHC Nonres 7A Ext Wall Mass,       ! Item Name
  ,                                       ! Object End Use Key
  ,                                       ! Quantity {dimensionless}
  0,                                      ! Material Cost {$}
  CostPerArea;                            ! Material Cost Units

OS:Construction,
  {cdb23a19-899a-4a0b-a4d6-a053e9d3e3b3}, ! Handle
  AEDG SHC Nonres 7A Ext Wall Mass,       ! Name
  ,                                       ! Surface Rendering Name
  {84a3e8f6-ab03-413c-86be-e09f046a561f}, ! Layer 1
  {73b0f022-6bfd-4dac-9533-a338985c5e2f}, ! Layer 2
  {13a5e0c3-4b0b-426d-a46b-22e11c2cd727}, ! Layer 3
  {e9519bce-fa0a-4d7b-a5f1-586f18cdf9fe}; ! Layer 4

OS:Material,
  {84a3e8f6-ab03-413c-86be-e09f046a561f}, ! Handle
  1IN Stucco,                             ! Name
  Smooth,                                 ! Roughness
  0.0253,                                 ! Thickness {m}
  0.6918,                                 ! Conductivity {W/m-K}
  1858,                                   ! Density {kg/m3}
  837,                                    ! Specific Heat {J/kg-K}
  0.9,                                    ! Thermal Absorptance
  0.92,                                   ! Solar Absorptance
  0.92;                                   ! Visible Absorptance

