
OS:Version,
  {8b2982c2-364f-4817-a4f1-2c57d32cd3dc}, ! Handle
  0.9.3;                                  ! Version Identifier

OS:ComponentCost:LineItem,
  {41ee9d65-af3f-4f11-89e8-1222892bf709}, ! Handle
  90.1-2001 Res B10 Ext Wall Mass,        ! Name
  ,                                       ! Type
  Construction,                           ! Line Item Type
  90.1-2001 Res B10 Ext Wall Mass,        ! Item Name
  ,                                       ! Object End Use Key
  ,                                       ! Quantity {dimensionless}
  61.418,                                 ! Material Cost {$}
  CostPerArea;                            ! Material Cost Units

OS:Material,
  {15776c15-465d-4db5-a75a-0648cdb64374}, ! Handle
  Wall Insulation [5],                    ! Name
  MediumRough,                            ! Roughness
  0.0453274,                              ! Thickness {m}
  0.0432,                                 ! Conductivity {W/m-K}
  91,                                     ! Density {kg/m3}
  837,                                    ! Specific Heat {J/kg-K}
  0.9,                                    ! Thermal Absorptance
  0.5,                                    ! Solar Absorptance
  0.5;                                    ! Visible Absorptance

OS:Construction,
  {44a6fd69-9a4c-423b-9dcb-e113c13ded42}, ! Handle
  90.1-2001 Res B10 Ext Wall Mass,        ! Name
  ,                                       ! Surface Rendering Name
  {a07fe72d-fc32-4589-ab5a-914933402e06}, ! Layer 1
  {06f3d41f-0013-4275-b849-b2d3c8495d65}, ! Layer 2
  {15776c15-465d-4db5-a75a-0648cdb64374}, ! Layer 3
  {bc630af2-bd89-4569-ba7b-64d6e5a65291}; ! Layer 4

OS:Material,
  {a07fe72d-fc32-4589-ab5a-914933402e06}, ! Handle
  1IN Stucco,                             ! Name
  Smooth,                                 ! Roughness
  0.0253,                                 ! Thickness {m}
  0.6918,                                 ! Conductivity {W/m-K}
  1858,                                   ! Density {kg/m3}
  837,                                    ! Specific Heat {J/kg-K}
  0.9,                                    ! Thermal Absorptance
  0.92,                                   ! Solar Absorptance
  0.92;                                   ! Visible Absorptance

OS:Material,
  {06f3d41f-0013-4275-b849-b2d3c8495d65}, ! Handle
  8IN Concrete HW,                        ! Name
  MediumRough,                            ! Roughness
  0.2033,                                 ! Thickness {m}
  1.7296,                                 ! Conductivity {W/m-K}
  2243,                                   ! Density {kg/m3}
  837,                                    ! Specific Heat {J/kg-K}
  0.9,                                    ! Thermal Absorptance
  0.65,                                   ! Solar Absorptance
  0.65;                                   ! Visible Absorptance

OS:Material,
  {bc630af2-bd89-4569-ba7b-64d6e5a65291}, ! Handle
  1/2IN Gypsum,                           ! Name
  Smooth,                                 ! Roughness
  0.01271,                                ! Thickness {m}
  0.16,                                   ! Conductivity {W/m-K}
  784.9,                                  ! Density {kg/m3}
  830,                                    ! Specific Heat {J/kg-K}
  0.9,                                    ! Thermal Absorptance
  0.92,                                   ! Solar Absorptance
  0.92;                                   ! Visible Absorptance

