
OS:Version,
  {47912ca7-db0a-4c28-9efc-fc52411f6073}, ! Handle
  0.9.3;                                  ! Version Identifier

OS:Material,
  {a7f6585e-044b-40ba-b1cb-8105ff985c6f}, ! Handle
  Wall Insulation,                        ! Name
  MediumRough,                            ! Roughness
  0.0598725,                              ! Thickness {m}
  0.045,                                  ! Conductivity {W/m-K}
  265,                                    ! Density {kg/m3}
  836.8,                                  ! Specific Heat {J/kg-K}
  0.9,                                    ! Thermal Absorptance
  0.7,                                    ! Solar Absorptance
  0.7;                                    ! Visible Absorptance

OS:Material,
  {043af230-e24b-423d-94c0-801ac870b9c8}, ! Handle
  1/2IN Gypsum,                           ! Name
  Smooth,                                 ! Roughness
  0.01271,                                ! Thickness {m}
  0.16,                                   ! Conductivity {W/m-K}
  784.9,                                  ! Density {kg/m3}
  830,                                    ! Specific Heat {J/kg-K}
  0.9,                                    ! Thermal Absorptance
  0.92,                                   ! Solar Absorptance
  0.92;                                   ! Visible Absorptance

OS:Construction,
  {a8124cf1-549a-44e5-9855-477ddf65fb14}, ! Handle
  90.1-2004 Nonres 3A Ext Wall Metal Building, ! Name
  ,                                       ! Surface Rendering Name
  {ebe78f59-38c3-46f9-8d98-b4bc1d87d566}, ! Layer 1
  {a7f6585e-044b-40ba-b1cb-8105ff985c6f}, ! Layer 2
  {043af230-e24b-423d-94c0-801ac870b9c8}; ! Layer 3

OS:Material,
  {ebe78f59-38c3-46f9-8d98-b4bc1d87d566}, ! Handle
  Metal Siding,                           ! Name
  Smooth,                                 ! Roughness
  0.0015,                                 ! Thickness {m}
  44.96,                                  ! Conductivity {W/m-K}
  7688.86,                                ! Density {kg/m3}
  410,                                    ! Specific Heat {J/kg-K}
  0.9,                                    ! Thermal Absorptance
  0.2,                                    ! Solar Absorptance
  0.2;                                    ! Visible Absorptance

OS:ComponentCost:LineItem,
  {ef8b377c-4ff2-44f8-8bde-be10d68c67aa}, ! Handle
  90.1-2004 Nonres 3A Ext Wall Metal Building, ! Name
  ,                                       ! Type
  Construction,                           ! Line Item Type
  90.1-2004 Nonres 3A Ext Wall Metal Building, ! Item Name
  ,                                       ! Object End Use Key
  ,                                       ! Quantity {dimensionless}
  98.78,                                  ! Material Cost {$}
  CostPerArea;                            ! Material Cost Units

