
OS:Version,
  {5832e8b4-c8e4-493d-b10f-67f880a9c328}, !- Handle
  1.0.6;                                  !- Version Identifier

OS:WindowMaterial:Glazing,
  {1988d614-1dec-41c1-966e-c2eae01c3ee0}, !- Handle
  189.1-2011 NONRES 7A METAL FRAMING CURTAINWALL-STOREFRONT THEORETICAL GLAZING, !- Name
  SpectralAverage,                        !- Optical Data Type
  ,                                       !- Window Glass Spectral Data Set Name
  0.04189,                                !- Thickness {m}
  0.36619,                                !- Solar Transmittance at Normal Incidence
  0.44018,                                !- Front Side Solar Reflectance at Normal Incidence
  0.44018,                                !- Back Side Solar Reflectance at Normal Incidence
  0.36619,                                !- Visible Transmittance at Normal Incidence
  0.44018,                                !- Front Side Visible Reflectance at Normal Incidence
  0.44018,                                !- Back Side Visible Reflectance at Normal Incidence
  0,                                      !- Infrared Transmittance at Normal Incidence
  0.84,                                   !- Front Side Infrared Hemispherical Emissivity
  0.84,                                   !- Back Side Infrared Hemispherical Emissivity
  0.1012,                                 !- Conductivity {W/m-K}
  1,                                      !- Dirt Correction Factor for Solar and Visible Transmittance
  No;                                     !- Solar Diffusing

OS:Construction,
  {2936b416-0f71-4267-bf44-014090f3063f}, !- Handle
  189.1-2011 NONRES 7 METAL FRAMING CURTAINWALL-STOREFRONT, !- Name
  ,                                       !- Surface Rendering Name
  {1988d614-1dec-41c1-966e-c2eae01c3ee0}; !- Layer 1

