
OS:Version,
  {3e16b8ca-0d12-4fb3-8a22-e83ffc1d21ef}, ! Handle
  0.9.3;                                  ! Version Identifier

OS:Material,
  {ed4a2fdf-fa23-4a29-8814-53fbcdb0320c}, ! Handle
  METAL Door Medium 18Ga_1,               ! Name
  Smooth,                                 ! Roughness
  0.0013106,                              ! Thickness {m}
  45.3149,                                ! Conductivity {W/m-K}
  7833.03,                                ! Density {kg/m3}
  502.08,                                 ! Specific Heat {J/kg-K}
  0.8,                                    ! Thermal Absorptance
  0.5,                                    ! Solar Absorptance
  0.5;                                    ! Visible Absorptance

OS:Material,
  {a08fbaf8-a4ea-427d-b9af-7bf4db4048b8}, ! Handle
  METAL Door Medium 18Ga_2,               ! Name
  Smooth,                                 ! Roughness
  0.0013106,                              ! Thickness {m}
  45.3149,                                ! Conductivity {W/m-K}
  7833.03,                                ! Density {kg/m3}
  502.08,                                 ! Specific Heat {J/kg-K}
  0.8,                                    ! Thermal Absorptance
  0.5,                                    ! Solar Absorptance
  0.5;                                    ! Visible Absorptance

OS:ComponentCost:LineItem,
  {3af9e236-8743-45af-be9d-b81dbfc6086a}, ! Handle
  Title 24-2008 Nonres 12 Door Swinging,  ! Name
  ,                                       ! Type
  Construction,                           ! Line Item Type
  Title 24-2008 Nonres 12 Door Swinging,  ! Item Name
  ,                                       ! Object End Use Key
  ,                                       ! Quantity {dimensionless}
  0,                                      ! Material Cost {$}
  CostPerArea;                            ! Material Cost Units

OS:Construction,
  {db9ebb46-2fee-434b-a367-0da1c9a22bed}, ! Handle
  Title 24-2008 Nonres 12 Door Swinging,  ! Name
  ,                                       ! Surface Rendering Name
  {ed4a2fdf-fa23-4a29-8814-53fbcdb0320c}, ! Layer 1
  {e7b62578-a98f-44e6-a5ab-fb234b2632d8}, ! Layer 2
  {a08fbaf8-a4ea-427d-b9af-7bf4db4048b8}; ! Layer 3

OS:Material:NoMass,
  {e7b62578-a98f-44e6-a5ab-fb234b2632d8}, ! Handle
  AIR [15],                               ! Name
  Smooth,                                 ! Roughness
  0.251781,                               ! Thermal Resistance {m2-K/W}
  0.8,                                    ! Thermal Absorptance
  0.5,                                    ! Solar Absorptance
  0.5;                                    ! Visible Absorptance

