
OS:Version,
  {ebee9361-a84b-4b59-806f-4d0d57c7980e}, ! Handle
  0.9.3;                                  ! Version Identifier

OS:Material,
  {c1719dcd-ebb0-454d-9142-583d38845357}, ! Handle
  Metal Roofing,                          ! Name
  MediumSmooth,                           ! Roughness
  0.001524,                               ! Thickness {m}
  45.006,                                 ! Conductivity {W/m-K}
  7680,                                   ! Density {kg/m3}
  418.4,                                  ! Specific Heat {J/kg-K}
  0.9,                                    ! Thermal Absorptance
  0.7,                                    ! Solar Absorptance
  0.3;                                    ! Visible Absorptance

OS:Construction,
  {1c0260ee-9936-4e9a-be87-c5534aa62986}, ! Handle
  90.1-2001 Nonres B16 Roof Metal Building, ! Name
  ,                                       ! Surface Rendering Name
  {c1719dcd-ebb0-454d-9142-583d38845357}, ! Layer 1
  {6f42b6f9-fea9-4818-ae03-5b69ad4730d6}; ! Layer 2

OS:Material,
  {6f42b6f9-fea9-4818-ae03-5b69ad4730d6}, ! Handle
  Roof Insulation [1],                    ! Name
  MediumRough,                            ! Roughness
  0.123533,                               ! Thickness {m}
  0.049,                                  ! Conductivity {W/m-K}
  265,                                    ! Density {kg/m3}
  836.8,                                  ! Specific Heat {J/kg-K}
  0.9,                                    ! Thermal Absorptance
  0.7,                                    ! Solar Absorptance
  0.7;                                    ! Visible Absorptance

OS:ComponentCost:LineItem,
  {a1650c9e-7329-4a4a-bca3-61b81ea09bf7}, ! Handle
  90.1-2001 Nonres B16 Roof Metal Building, ! Name
  ,                                       ! Type
  Construction,                           ! Line Item Type
  90.1-2001 Nonres B16 Roof Metal Building, ! Item Name
  ,                                       ! Object End Use Key
  ,                                       ! Quantity {dimensionless}
  38.206,                                 ! Material Cost {$}
  CostPerArea;                            ! Material Cost Units

