
OS:Version,
  {ace38486-36f9-49b9-8fcb-13db89990d5e}, ! Handle
  0.9.3;                                  ! Version Identifier

OS:Construction,
  {8cfbff42-dfe7-4338-a3b9-b6fecc024f8c}, ! Handle
  90.1-2001 Nonres B16 Window Fixed,      ! Name
  ,                                       ! Surface Rendering Name
  {c6153c95-c31b-460a-9a7f-0d9071474707}; ! Layer 1

OS:WindowMaterial:Glazing,
  {c6153c95-c31b-460a-9a7f-0d9071474707}, ! Handle
  Theoretical Glass [36],                 ! Name
  SpectralAverage,                        ! Optical Data Type
  ,                                       ! Window Glass Spectral Data Set Name
  0.003,                                  ! Thickness {m}
  0.354957,                               ! Solar Transmittance at Normal Incidence
  0.595043,                               ! Front Side Solar Reflectance at Normal Incidence
  0.595043,                               ! Back Side Solar Reflectance at Normal Incidence
  0.376261,                               ! Visible Transmittance at Normal Incidence
  0.573739,                               ! Front Side Visible Reflectance at Normal Incidence
  0.573739,                               ! Back Side Visible Reflectance at Normal Incidence
  0,                                      ! Infrared Transmittance at Normal Incidence
  0.9,                                    ! Front Side Infrared Hemispherical Emissivity
  0.9,                                    ! Back Side Infrared Hemispherical Emissivity
  0.0134755;                              ! Conductivity {W/m-K}

OS:ComponentCost:LineItem,
  {080d622e-37fa-4c6e-98c2-451c6b818cb6}, ! Handle
  90.1-2001 Nonres B16 Window Fixed,      ! Name
  ,                                       ! Type
  Construction,                           ! Line Item Type
  90.1-2001 Nonres B16 Window Fixed,      ! Item Name
  ,                                       ! Object End Use Key
  ,                                       ! Quantity {dimensionless}
  554.2,                                  ! Material Cost {$}
  CostPerArea;                            ! Material Cost Units

