
OS:Version,
  {c6f96fa4-1e28-415e-9833-bcdc054e52de}, ! Handle
  0.9.3;                                  ! Version Identifier

OS:ComponentCost:LineItem,
  {9f6d3d1a-09a0-48b4-b6ea-e9f667a35539}, ! Handle
  90.1-1999 Res B14 Ext Slab Unheated - 8in Slab with Carpet, ! Name
  ,                                       ! Type
  Construction,                           ! Line Item Type
  90.1-1999 Res B14 Ext Slab Unheated - 8in Slab with Carpet, ! Item Name
  ,                                       ! Object End Use Key
  ,                                       ! Quantity {dimensionless}
  45.52,                                  ! Material Cost {$}
  CostPerArea;                            ! Material Cost Units

OS:Material:NoMass,
  {3017b4f8-2b31-4323-87c1-b2edd8373ff5}, ! Handle
  CP02 CARPET PAD,                        ! Name
  VeryRough,                              ! Roughness
  0.21648,                                ! Thermal Resistance {m2-K/W}
  0.9,                                    ! Thermal Absorptance
  0.7,                                    ! Solar Absorptance
  0.8;                                    ! Visible Absorptance

OS:Construction,
  {5c834107-bf35-49e1-b25c-9ccdec19e6f0}, ! Handle
  90.1-1999 Res B14 Ext Slab Unheated - 8in Slab with Carpet, ! Name
  ,                                       ! Surface Rendering Name
  {1756d06c-7d9f-494a-bfa5-63381849a954}, ! Layer 1
  {3017b4f8-2b31-4323-87c1-b2edd8373ff5}; ! Layer 2

OS:Material,
  {1756d06c-7d9f-494a-bfa5-63381849a954}, ! Handle
  MAT-CC05 8 HW CONCRETE,                 ! Name
  Rough,                                  ! Roughness
  0.20321,                                ! Thickness {m}
  1.311,                                  ! Conductivity {W/m-K}
  2240,                                   ! Density {kg/m3}
  836.8,                                  ! Specific Heat {J/kg-K}
  0.9,                                    ! Thermal Absorptance
  0.7,                                    ! Solar Absorptance
  0.7;                                    ! Visible Absorptance

