
OS:Version,
  {ef597aa3-dfeb-4b88-96d5-b6cefbdb6c64}, ! Handle
  0.9.3;                                  ! Version Identifier

OS:Material,
  {2264dc5d-4392-4c30-ae9d-09a3733c42d4}, ! Handle
  1IN Wood Decking,                       ! Name
  MediumSmooth,                           ! Roughness
  0.0254,                                 ! Thickness {m}
  0.1211,                                 ! Conductivity {W/m-K}
  593,                                    ! Density {kg/m3}
  2510,                                   ! Specific Heat {J/kg-K}
  0.9,                                    ! Thermal Absorptance
  0.78,                                   ! Solar Absorptance
  0.78;                                   ! Visible Absorptance

OS:Material,
  {a21c1aa8-2ad6-4822-b574-853b67949b10}, ! Handle
  Roof Insulation [5],                    ! Name
  MediumRough,                            ! Roughness
  0.286906,                               ! Thickness {m}
  0.049,                                  ! Conductivity {W/m-K}
  265,                                    ! Density {kg/m3}
  836.8,                                  ! Specific Heat {J/kg-K}
  0.9,                                    ! Thermal Absorptance
  0.7,                                    ! Solar Absorptance
  0.7;                                    ! Visible Absorptance

OS:Material,
  {9cf9a6c9-9771-4192-9b60-db22ac6685f9}, ! Handle
  1/2IN Gypsum,                           ! Name
  Smooth,                                 ! Roughness
  0.01271,                                ! Thickness {m}
  0.16,                                   ! Conductivity {W/m-K}
  784.9,                                  ! Density {kg/m3}
  830,                                    ! Specific Heat {J/kg-K}
  0.9,                                    ! Thermal Absorptance
  0.92,                                   ! Solar Absorptance
  0.92;                                   ! Visible Absorptance

OS:Construction,
  {8d032c3e-6626-4100-97f2-26a5105656af}, ! Handle
  90.1-1999 Res B20 Roof Attic and Other, ! Name
  ,                                       ! Surface Rendering Name
  {4f5feb43-0500-4ab4-9d1c-41c7d71e4fae}, ! Layer 1
  {2264dc5d-4392-4c30-ae9d-09a3733c42d4}, ! Layer 2
  {a21c1aa8-2ad6-4822-b574-853b67949b10}, ! Layer 3
  {9cf9a6c9-9771-4192-9b60-db22ac6685f9}; ! Layer 4

OS:Material,
  {4f5feb43-0500-4ab4-9d1c-41c7d71e4fae}, ! Handle
  Wood Shingles,                          ! Name
  VeryRough,                              ! Roughness
  0.0178,                                 ! Thickness {m}
  0.115,                                  ! Conductivity {W/m-K}
  513,                                    ! Density {kg/m3}
  1255,                                   ! Specific Heat {J/kg-K}
  0.9,                                    ! Thermal Absorptance
  0.78,                                   ! Solar Absorptance
  0.78;                                   ! Visible Absorptance

OS:ComponentCost:LineItem,
  {140b6811-3e08-460f-89fe-3eba54b457d9}, ! Handle
  90.1-1999 Res B20 Roof Attic and Other, ! Name
  ,                                       ! Type
  Construction,                           ! Line Item Type
  90.1-1999 Res B20 Roof Attic and Other, ! Item Name
  ,                                       ! Object End Use Key
  ,                                       ! Quantity {dimensionless}
  34.757,                                 ! Material Cost {$}
  CostPerArea;                            ! Material Cost Units

