
OS:Version,
  {05f84c52-25f2-446e-81da-046495d437e3}, ! Handle
  0.9.3;                                  ! Version Identifier

OS:Material,
  {c86c5f65-7dfd-4dea-9b31-d35ab21364ac}, ! Handle
  1IN Wood Decking,                       ! Name
  MediumSmooth,                           ! Roughness
  0.0254,                                 ! Thickness {m}
  0.1211,                                 ! Conductivity {W/m-K}
  593,                                    ! Density {kg/m3}
  2510,                                   ! Specific Heat {J/kg-K}
  0.9,                                    ! Thermal Absorptance
  0.78,                                   ! Solar Absorptance
  0.78;                                   ! Visible Absorptance

OS:ComponentCost:LineItem,
  {71e7d709-fd20-4451-922c-d837665207da}, ! Handle
  90.1-2001 Nonres B19 Roof Attic and Other, ! Name
  ,                                       ! Type
  Construction,                           ! Line Item Type
  90.1-2001 Nonres B19 Roof Attic and Other, ! Item Name
  ,                                       ! Object End Use Key
  ,                                       ! Quantity {dimensionless}
  34.757,                                 ! Material Cost {$}
  CostPerArea;                            ! Material Cost Units

OS:Material,
  {fcfd5f78-b547-45fb-9918-d295868290bc}, ! Handle
  Roof Insulation [5],                    ! Name
  MediumRough,                            ! Roughness
  0.286906,                               ! Thickness {m}
  0.049,                                  ! Conductivity {W/m-K}
  265,                                    ! Density {kg/m3}
  836.8,                                  ! Specific Heat {J/kg-K}
  0.9,                                    ! Thermal Absorptance
  0.7,                                    ! Solar Absorptance
  0.7;                                    ! Visible Absorptance

OS:Material,
  {99d7a6d4-422d-49e6-b00f-8f6b6fb5be23}, ! Handle
  Wood Shingles,                          ! Name
  VeryRough,                              ! Roughness
  0.0178,                                 ! Thickness {m}
  0.115,                                  ! Conductivity {W/m-K}
  513,                                    ! Density {kg/m3}
  1255,                                   ! Specific Heat {J/kg-K}
  0.9,                                    ! Thermal Absorptance
  0.78,                                   ! Solar Absorptance
  0.78;                                   ! Visible Absorptance

OS:Construction,
  {583005ad-7245-4c95-99c0-a0a21e44ff96}, ! Handle
  90.1-2001 Nonres B19 Roof Attic and Other, ! Name
  ,                                       ! Surface Rendering Name
  {99d7a6d4-422d-49e6-b00f-8f6b6fb5be23}, ! Layer 1
  {c86c5f65-7dfd-4dea-9b31-d35ab21364ac}, ! Layer 2
  {fcfd5f78-b547-45fb-9918-d295868290bc}, ! Layer 3
  {8bce6704-349c-474f-9849-f18f54c9fbae}; ! Layer 4

OS:Material,
  {8bce6704-349c-474f-9849-f18f54c9fbae}, ! Handle
  1/2IN Gypsum,                           ! Name
  Smooth,                                 ! Roughness
  0.01271,                                ! Thickness {m}
  0.16,                                   ! Conductivity {W/m-K}
  784.9,                                  ! Density {kg/m3}
  830,                                    ! Specific Heat {J/kg-K}
  0.9,                                    ! Thermal Absorptance
  0.92,                                   ! Solar Absorptance
  0.92;                                   ! Visible Absorptance

