
OS:Version,
  {9d33b1e8-07be-4af3-b5ba-74487edea43e}, ! Handle
  0.9.3;                                  ! Version Identifier

OS:Construction,
  {f4875391-966d-4033-bbb0-a9f8324f474d}, ! Handle
  90.1-2004 Nonres 2A Ext Slab Unheated - 4in Slab with Carpet, ! Name
  ,                                       ! Surface Rendering Name
  {21a0ffac-7b0a-410b-bbff-8bdd0f33ec2f}, ! Layer 1
  {189947b9-e41f-4249-8a73-987b8b219886}; ! Layer 2

OS:Material,
  {21a0ffac-7b0a-410b-bbff-8bdd0f33ec2f}, ! Handle
  MAT-CC05 4 HW CONCRETE,                 ! Name
  Rough,                                  ! Roughness
  0.1016,                                 ! Thickness {m}
  1.311,                                  ! Conductivity {W/m-K}
  2240,                                   ! Density {kg/m3}
  836.8,                                  ! Specific Heat {J/kg-K}
  0.9,                                    ! Thermal Absorptance
  0.7,                                    ! Solar Absorptance
  0.7;                                    ! Visible Absorptance

OS:Material:NoMass,
  {189947b9-e41f-4249-8a73-987b8b219886}, ! Handle
  CP02 CARPET PAD,                        ! Name
  VeryRough,                              ! Roughness
  0.21648,                                ! Thermal Resistance {m2-K/W}
  0.9,                                    ! Thermal Absorptance
  0.7,                                    ! Solar Absorptance
  0.8;                                    ! Visible Absorptance

OS:ComponentCost:LineItem,
  {e3c299c8-d257-41ed-a18e-d1bbb4d041c7}, ! Handle
  90.1-2004 Nonres 2A Ext Slab Unheated - 4in Slab with Carpet, ! Name
  ,                                       ! Type
  Construction,                           ! Line Item Type
  90.1-2004 Nonres 2A Ext Slab Unheated - 4in Slab with Carpet, ! Item Name
  ,                                       ! Object End Use Key
  ,                                       ! Quantity {dimensionless}
  45.52,                                  ! Material Cost {$}
  CostPerArea;                            ! Material Cost Units

