
OS:Version,
  {d3a7afeb-34fe-4fe6-bc26-135e22571d0a}, ! Handle
  0.9.3;                                  ! Version Identifier

OS:Construction,
  {610f385e-634e-492b-9984-ccc0921c9dce}, ! Handle
  90.1 Windows Window Fixed 2145 Mtl-GrnMpr-Std-ClrSue, ! Name
  ,                                       ! Surface Rendering Name
  {085e8ed6-473b-4b7e-984a-403f878d816d}; ! Layer 1

OS:WindowMaterial:Glazing,
  {085e8ed6-473b-4b7e-984a-403f878d816d}, ! Handle
  Theoretical Glass [506],                ! Name
  SpectralAverage,                        ! Optical Data Type
  ,                                       ! Window Glass Spectral Data Set Name
  0.003,                                  ! Thickness {m}
  0.244165,                               ! Solar Transmittance at Normal Incidence
  0.705835,                               ! Front Side Solar Reflectance at Normal Incidence
  0.705835,                               ! Back Side Solar Reflectance at Normal Incidence
  0.310844,                               ! Visible Transmittance at Normal Incidence
  0.639156,                               ! Front Side Visible Reflectance at Normal Incidence
  0.639156,                               ! Back Side Visible Reflectance at Normal Incidence
  0,                                      ! Infrared Transmittance at Normal Incidence
  0.9,                                    ! Front Side Infrared Hemispherical Emissivity
  0.9,                                    ! Back Side Infrared Hemispherical Emissivity
  0.0198691;                              ! Conductivity {W/m-K}

OS:ComponentCost:LineItem,
  {5fb86c96-30f7-49be-a890-3f39ce162c62}, ! Handle
  90.1 Windows Window Fixed 2145 Mtl-GrnMpr-Std-ClrSue, ! Name
  ,                                       ! Type
  Construction,                           ! Line Item Type
  90.1 Windows Window Fixed 2145 Mtl-GrnMpr-Std-ClrSue, ! Item Name
  ,                                       ! Object End Use Key
  ,                                       ! Quantity {dimensionless}
  0,                                      ! Material Cost {$}
  CostPerArea;                            ! Material Cost Units

