
OS:Version,
  {ca76ca5c-6ada-4cc8-b2c7-d0c922eba0bf}, ! Handle
  0.9.3;                                  ! Version Identifier

OS:WindowMaterial:Glazing,
  {b476075b-d6cb-43e4-b254-b40ba89f491a}, ! Handle
  Theoretical Glass [176],                ! Name
  SpectralAverage,                        ! Optical Data Type
  ,                                       ! Window Glass Spectral Data Set Name
  0.003,                                  ! Thickness {m}
  0.240609,                               ! Solar Transmittance at Normal Incidence
  0.709391,                               ! Front Side Solar Reflectance at Normal Incidence
  0.709391,                               ! Back Side Solar Reflectance at Normal Incidence
  0.319199,                               ! Visible Transmittance at Normal Incidence
  0.630801,                               ! Front Side Visible Reflectance at Normal Incidence
  0.630801,                               ! Back Side Visible Reflectance at Normal Incidence
  0,                                      ! Infrared Transmittance at Normal Incidence
  0.9,                                    ! Front Side Infrared Hemispherical Emissivity
  0.9,                                    ! Back Side Infrared Hemispherical Emissivity
  0.0711841;                              ! Conductivity {W/m-K}

OS:Construction,
  {79d42e7c-077b-45a4-a022-09eb36a09f21}, ! Handle
  90.1-2007 Nonres 3A Window Metal framing entrance door, ! Name
  ,                                       ! Surface Rendering Name
  {b476075b-d6cb-43e4-b254-b40ba89f491a}; ! Layer 1

OS:ComponentCost:LineItem,
  {4a31b924-3200-4360-94d8-1cd140e7ae43}, ! Handle
  90.1-2007 Nonres 3A Window Metal framing entrance door, ! Name
  ,                                       ! Type
  Construction,                           ! Line Item Type
  90.1-2007 Nonres 3A Window Metal framing entrance door, ! Item Name
  ,                                       ! Object End Use Key
  ,                                       ! Quantity {dimensionless}
  563.991,                                ! Material Cost {$}
  CostPerArea;                            ! Material Cost Units

