
OS:Version,
  {3f117b62-558c-4351-9582-066ae031bdd7}, ! Handle
  0.9.3;                                  ! Version Identifier

OS:Construction,
  {825eb9f6-9211-46f5-99db-573409109fc9}, ! Handle
  90.1-2007 Nonres 3A Window Metal framing entrance door, ! Name
  ,                                       ! Surface Rendering Name
  {d42c6749-85b9-44b1-a742-2ac7819290fd}; ! Layer 1

OS:WindowMaterial:Glazing,
  {d42c6749-85b9-44b1-a742-2ac7819290fd}, ! Handle
  Theoretical Glass [176],                ! Name
  SpectralAverage,                        ! Optical Data Type
  ,                                       ! Window Glass Spectral Data Set Name
  0.003,                                  ! Thickness {m}
  0.240609,                               ! Solar Transmittance at Normal Incidence
  0.709391,                               ! Front Side Solar Reflectance at Normal Incidence
  0.709391,                               ! Back Side Solar Reflectance at Normal Incidence
  0.319199,                               ! Visible Transmittance at Normal Incidence
  0.630801,                               ! Front Side Visible Reflectance at Normal Incidence
  0.630801,                               ! Back Side Visible Reflectance at Normal Incidence
  0,                                      ! Infrared Transmittance at Normal Incidence
  0.9,                                    ! Front Side Infrared Hemispherical Emissivity
  0.9,                                    ! Back Side Infrared Hemispherical Emissivity
  0.0711841;                              ! Conductivity {W/m-K}

OS:ComponentCost:LineItem,
  {f9724408-a285-423c-af80-4551e57c6fe5}, ! Handle
  90.1-2007 Nonres 3A Window Metal framing entrance door, ! Name
  ,                                       ! Type
  Construction,                           ! Line Item Type
  90.1-2007 Nonres 3A Window Metal framing entrance door, ! Item Name
  ,                                       ! Object End Use Key
  ,                                       ! Quantity {dimensionless}
  563.991,                                ! Material Cost {$}
  CostPerArea;                            ! Material Cost Units

OS:ComponentData,
  {ebd706b7-db67-4de9-bb46-84acc947148c}, ! Handle
  Component Data 1,                       ! Name
  {25669508-bc07-44db-8e92-fc2f97101fe5}, ! UUID
  {989dac67-c76c-408d-af98-5e16ba58b0b4}, ! Version UUID
  1363981798,                             ! Creation Timestamp
  1363981798,                             ! Version Timestamp
  {825eb9f6-9211-46f5-99db-573409109fc9}, ! Name of Object 1
  {d42c6749-85b9-44b1-a742-2ac7819290fd}, ! Name of Object 2
  {f9724408-a285-423c-af80-4551e57c6fe5}; ! Name of Object 3

