
OS:Version,
  {f81a038f-af80-4f5c-9dd7-9094437ef316}, ! Handle
  0.9.3;                                  ! Version Identifier

OS:Material,
  {40134fbb-00f1-4e09-9c47-2ae69460600c}, ! Handle
  Metal Roofing,                          ! Name
  MediumSmooth,                           ! Roughness
  0.001524,                               ! Thickness {m}
  45.006,                                 ! Conductivity {W/m-K}
  7680,                                   ! Density {kg/m3}
  418.4,                                  ! Specific Heat {J/kg-K}
  0.9,                                    ! Thermal Absorptance
  0.7,                                    ! Solar Absorptance
  0.3;                                    ! Visible Absorptance

OS:Material,
  {2692079b-15cf-4f34-acda-04676c919379}, ! Handle
  Roof Insulation [1],                    ! Name
  MediumRough,                            ! Roughness
  0.123533,                               ! Thickness {m}
  0.049,                                  ! Conductivity {W/m-K}
  265,                                    ! Density {kg/m3}
  836.8,                                  ! Specific Heat {J/kg-K}
  0.9,                                    ! Thermal Absorptance
  0.7,                                    ! Solar Absorptance
  0.7;                                    ! Visible Absorptance

OS:Construction,
  {1c493269-a616-48ac-a15a-d39a63d165c3}, ! Handle
  90.1-1999 Nonres B8 Roof Metal Building, ! Name
  ,                                       ! Surface Rendering Name
  {40134fbb-00f1-4e09-9c47-2ae69460600c}, ! Layer 1
  {2692079b-15cf-4f34-acda-04676c919379}; ! Layer 2

OS:ComponentCost:LineItem,
  {a039e798-8c83-4438-b847-412c4c4deea8}, ! Handle
  90.1-1999 Nonres B8 Roof Metal Building, ! Name
  ,                                       ! Type
  Construction,                           ! Line Item Type
  90.1-1999 Nonres B8 Roof Metal Building, ! Item Name
  ,                                       ! Object End Use Key
  ,                                       ! Quantity {dimensionless}
  38.206,                                 ! Material Cost {$}
  CostPerArea;                            ! Material Cost Units

