
OS:Version,
  {daf3b6b1-e1b2-42f0-a4b6-d0edc203ec96}, ! Handle
  0.9.3;                                  ! Version Identifier

OS:Construction,
  {f994f7b2-a39d-41e8-9cba-c90424a8d59b}, ! Handle
  90.1-1999 Nonres B7 Window Fixed,       ! Name
  ,                                       ! Surface Rendering Name
  {f187b84d-26c9-4530-9bb0-421eeb969a4a}; ! Layer 1

OS:WindowMaterial:Glazing,
  {f187b84d-26c9-4530-9bb0-421eeb969a4a}, ! Handle
  Theoretical Glass [15],                 ! Name
  SpectralAverage,                        ! Optical Data Type
  ,                                       ! Window Glass Spectral Data Set Name
  0.003,                                  ! Thickness {m}
  0.376715,                               ! Solar Transmittance at Normal Incidence
  0.573285,                               ! Front Side Solar Reflectance at Normal Incidence
  0.573285,                               ! Back Side Solar Reflectance at Normal Incidence
  0.41104,                                ! Visible Transmittance at Normal Incidence
  0.53896,                                ! Front Side Visible Reflectance at Normal Incidence
  0.53896,                                ! Back Side Visible Reflectance at Normal Incidence
  0,                                      ! Infrared Transmittance at Normal Incidence
  0.999,                                  ! Front Side Infrared Hemispherical Emissivity
  0.999,                                  ! Back Side Infrared Hemispherical Emissivity
  3.36874;                                ! Conductivity {W/m-K}

OS:ComponentCost:LineItem,
  {e11ead93-4616-4839-9200-88e5f2271d97}, ! Handle
  90.1-1999 Nonres B7 Window Fixed,       ! Name
  ,                                       ! Type
  Construction,                           ! Line Item Type
  90.1-1999 Nonres B7 Window Fixed,       ! Item Name
  ,                                       ! Object End Use Key
  ,                                       ! Quantity {dimensionless}
  473.607,                                ! Material Cost {$}
  CostPerArea;                            ! Material Cost Units

OS:ComponentData,
  {9eec0a27-c813-4bb7-a4b3-7c57b6eb0d6e}, ! Handle
  Component Data 1,                       ! Name
  {875fd851-1a4f-4df0-84c4-8be4a550607c}, ! UUID
  {d93ce456-46cf-4ffe-bc0d-70283c84a5dd}, ! Version UUID
  1363981070,                             ! Creation Timestamp
  1363981070,                             ! Version Timestamp
  {f994f7b2-a39d-41e8-9cba-c90424a8d59b}, ! Name of Object 1
  {f187b84d-26c9-4530-9bb0-421eeb969a4a}, ! Name of Object 2
  {e11ead93-4616-4839-9200-88e5f2271d97}; ! Name of Object 3

