
OS:Version,
  {e5030527-4b71-4a65-ab18-728c7be45905}, ! Handle
  0.9.3;                                  ! Version Identifier

OS:Material,
  {ff2ea9cd-1bef-4993-8882-5681dec8b3bb}, ! Handle
  Wood Siding,                            ! Name
  MediumSmooth,                           ! Roughness
  0.01,                                   ! Thickness {m}
  0.11,                                   ! Conductivity {W/m-K}
  544.62,                                 ! Density {kg/m3}
  1210,                                   ! Specific Heat {J/kg-K}
  0.9,                                    ! Thermal Absorptance
  0.78,                                   ! Solar Absorptance
  0.78;                                   ! Visible Absorptance

OS:ComponentCost:LineItem,
  {0f342549-b2b8-4fe0-ab86-1f29c342c6de}, ! Handle
  90.1-2001 Nonres B8 Ext Wall Wood-Framed and Other, ! Name
  ,                                       ! Type
  Construction,                           ! Line Item Type
  90.1-2001 Nonres B8 Ext Wall Wood-Framed and Other, ! Item Name
  ,                                       ! Object End Use Key
  ,                                       ! Quantity {dimensionless}
  73.056,                                 ! Material Cost {$}
  CostPerArea;                            ! Material Cost Units

OS:Material,
  {29c6c285-9dc3-4b73-9987-f2a78e7601d1}, ! Handle
  1/2IN Gypsum,                           ! Name
  Smooth,                                 ! Roughness
  0.01271,                                ! Thickness {m}
  0.16,                                   ! Conductivity {W/m-K}
  784.9,                                  ! Density {kg/m3}
  830,                                    ! Specific Heat {J/kg-K}
  0.9,                                    ! Thermal Absorptance
  0.92,                                   ! Solar Absorptance
  0.92;                                   ! Visible Absorptance

OS:Construction,
  {1b7f75ce-37ff-461e-b32b-5dd979075711}, ! Handle
  90.1-2001 Nonres B8 Ext Wall Wood-Framed and Other, ! Name
  ,                                       ! Surface Rendering Name
  {ff2ea9cd-1bef-4993-8882-5681dec8b3bb}, ! Layer 1
  {3df3cb68-059b-4197-8aae-d1bbcc7e8083}, ! Layer 2
  {29c6c285-9dc3-4b73-9987-f2a78e7601d1}; ! Layer 3

OS:Material,
  {3df3cb68-059b-4197-8aae-d1bbcc7e8083}, ! Handle
  Wall Insulation [2],                    ! Name
  MediumRough,                            ! Roughness
  0.0746874,                              ! Thickness {m}
  0.045,                                  ! Conductivity {W/m-K}
  265,                                    ! Density {kg/m3}
  836.8,                                  ! Specific Heat {J/kg-K}
  0.9,                                    ! Thermal Absorptance
  0.7,                                    ! Solar Absorptance
  0.7;                                    ! Visible Absorptance

