
OS:Version,
  {5855c78e-a835-47cd-8f69-8a6135c6cdae}, ! Handle
  0.9.3;                                  ! Version Identifier

OS:Construction,
  {05cfae07-b7a5-43d2-aa9e-11f185cecf2b}, ! Handle
  90.1-1999 Nonres B6 Skylight without Curb, ! Name
  ,                                       ! Surface Rendering Name
  {3368d934-791d-4810-bcb1-3375be2a37e8}; ! Layer 1

OS:WindowMaterial:Glazing,
  {3368d934-791d-4810-bcb1-3375be2a37e8}, ! Handle
  Theoretical Glass [17],                 ! Name
  SpectralAverage,                        ! Optical Data Type
  ,                                       ! Window Glass Spectral Data Set Name
  0.003,                                  ! Thickness {m}
  0.375972,                               ! Solar Transmittance at Normal Incidence
  0.574028,                               ! Front Side Solar Reflectance at Normal Incidence
  0.574028,                               ! Back Side Solar Reflectance at Normal Incidence
  0.41104,                                ! Visible Transmittance at Normal Incidence
  0.53896,                                ! Front Side Visible Reflectance at Normal Incidence
  0.53896,                                ! Back Side Visible Reflectance at Normal Incidence
  0,                                      ! Infrared Transmittance at Normal Incidence
  0.999,                                  ! Front Side Infrared Hemispherical Emissivity
  0.999,                                  ! Back Side Infrared Hemispherical Emissivity
  299.383;                                ! Conductivity {W/m-K}

OS:ComponentCost:LineItem,
  {0aa38234-ecf2-4b11-a67c-3ccc260e0d91}, ! Handle
  90.1-1999 Nonres B6 Skylight without Curb, ! Name
  ,                                       ! Type
  Construction,                           ! Line Item Type
  90.1-1999 Nonres B6 Skylight without Curb, ! Item Name
  ,                                       ! Object End Use Key
  ,                                       ! Quantity {dimensionless}
  486.627,                                ! Material Cost {$}
  CostPerArea;                            ! Material Cost Units

