
OS:Version,
  {8d406836-f38b-4db1-bb2b-f617b1b40620}, ! Handle
  0.9.3;                                  ! Version Identifier

OS:Construction,
  {bb22b87e-ddfb-4e60-b95c-5b2758b72fe1}, ! Handle
  90.1-2001 Nonres B25 Ext Wall Steel-Framed, ! Name
  ,                                       ! Surface Rendering Name
  {f59e585f-89d9-4b7b-b54c-4fc8113b42f9}, ! Layer 1
  {58a6d16e-8dbb-451c-8342-2c6ff53469bf}, ! Layer 2
  {9c51efac-38f5-442f-8404-8a797b61b6dc}; ! Layer 3

OS:Material:NoMass,
  {f59e585f-89d9-4b7b-b54c-4fc8113b42f9}, ! Handle
  MAT-SHEATH,                             ! Name
  Rough,                                  ! Roughness
  0.36256,                                ! Thermal Resistance {m2-K/W}
  0.9,                                    ! Thermal Absorptance
  0.7,                                    ! Solar Absorptance
  0.7;                                    ! Visible Absorptance

OS:Material,
  {58a6d16e-8dbb-451c-8342-2c6ff53469bf}, ! Handle
  Wall Insulation [10],                   ! Name
  MediumRough,                            ! Roughness
  0.0971136,                              ! Thickness {m}
  0.045,                                  ! Conductivity {W/m-K}
  265,                                    ! Density {kg/m3}
  836.8,                                  ! Specific Heat {J/kg-K}
  0.9,                                    ! Thermal Absorptance
  0.7,                                    ! Solar Absorptance
  0.7;                                    ! Visible Absorptance

OS:Material,
  {9c51efac-38f5-442f-8404-8a797b61b6dc}, ! Handle
  1/2IN Gypsum,                           ! Name
  Smooth,                                 ! Roughness
  0.01271,                                ! Thickness {m}
  0.16,                                   ! Conductivity {W/m-K}
  784.9,                                  ! Density {kg/m3}
  830,                                    ! Specific Heat {J/kg-K}
  0.9,                                    ! Thermal Absorptance
  0.92,                                   ! Solar Absorptance
  0.92;                                   ! Visible Absorptance

OS:ComponentCost:LineItem,
  {7cc516a8-c669-437c-9c81-c73e30a185f1}, ! Handle
  90.1-2001 Nonres B25 Ext Wall Steel-Framed, ! Name
  ,                                       ! Type
  Construction,                           ! Line Item Type
  90.1-2001 Nonres B25 Ext Wall Steel-Framed, ! Item Name
  ,                                       ! Object End Use Key
  ,                                       ! Quantity {dimensionless}
  94.657,                                 ! Material Cost {$}
  CostPerArea;                            ! Material Cost Units

OS:ComponentData,
  {0fc64e23-1824-4df9-bc42-c4ddaf61d742}, ! Handle
  Component Data 1,                       ! Name
  {b507ea9f-e80f-43df-ae5c-20cf52e2d7c6}, ! UUID
  {1b6f3d60-8eab-43a5-bf0f-7da6b09f65cc}, ! Version UUID
  1363981432,                             ! Creation Timestamp
  1363981432,                             ! Version Timestamp
  {bb22b87e-ddfb-4e60-b95c-5b2758b72fe1}, ! Name of Object 1
  {f59e585f-89d9-4b7b-b54c-4fc8113b42f9}, ! Name of Object 2
  {58a6d16e-8dbb-451c-8342-2c6ff53469bf}, ! Name of Object 3
  {9c51efac-38f5-442f-8404-8a797b61b6dc}, ! Name of Object 4
  {7cc516a8-c669-437c-9c81-c73e30a185f1}; ! Name of Object 5

