
OS:Version,
  {51190863-85cc-4e3b-972c-65f4f0d5a457}, ! Handle
  0.9.3;                                  ! Version Identifier

OS:Material:NoMass,
  {d95aec73-990c-4991-8d8a-18d621c93757}, ! Handle
  MAT-SHEATH,                             ! Name
  Rough,                                  ! Roughness
  0.36256,                                ! Thermal Resistance {m2-K/W}
  0.9,                                    ! Thermal Absorptance
  0.7,                                    ! Solar Absorptance
  0.7;                                    ! Visible Absorptance

OS:Material,
  {a90f5b1e-8fdf-4ee4-829f-76c10a65c0c4}, ! Handle
  1/2IN Gypsum,                           ! Name
  Smooth,                                 ! Roughness
  0.01271,                                ! Thickness {m}
  0.16,                                   ! Conductivity {W/m-K}
  784.9,                                  ! Density {kg/m3}
  830,                                    ! Specific Heat {J/kg-K}
  0.9,                                    ! Thermal Absorptance
  0.92,                                   ! Solar Absorptance
  0.92;                                   ! Visible Absorptance

OS:ComponentCost:LineItem,
  {5e0e6c62-ccef-4a17-96b5-81a617c19f8c}, ! Handle
  90.1-2001 Nonres B17 Ext Wall Steel-Framed, ! Name
  ,                                       ! Type
  Construction,                           ! Line Item Type
  90.1-2001 Nonres B17 Ext Wall Steel-Framed, ! Item Name
  ,                                       ! Object End Use Key
  ,                                       ! Quantity {dimensionless}
  91.749,                                 ! Material Cost {$}
  CostPerArea;                            ! Material Cost Units

OS:Construction,
  {83b4668a-daec-4422-ad02-9bffa2850e3b}, ! Handle
  90.1-2001 Nonres B17 Ext Wall Steel-Framed, ! Name
  ,                                       ! Surface Rendering Name
  {d95aec73-990c-4991-8d8a-18d621c93757}, ! Layer 1
  {90c941b4-e906-4944-911b-b7159ff428d6}, ! Layer 2
  {a90f5b1e-8fdf-4ee4-829f-76c10a65c0c4}; ! Layer 3

OS:Material,
  {90c941b4-e906-4944-911b-b7159ff428d6}, ! Handle
  Wall Insulation [6],                    ! Name
  MediumRough,                            ! Roughness
  0.0678449,                              ! Thickness {m}
  0.045,                                  ! Conductivity {W/m-K}
  265,                                    ! Density {kg/m3}
  836.8,                                  ! Specific Heat {J/kg-K}
  0.9,                                    ! Thermal Absorptance
  0.7,                                    ! Solar Absorptance
  0.7;                                    ! Visible Absorptance

