
OS:Version,
  {4c944ff7-8d40-4bad-aeb6-199937df7e29}, ! Handle
  0.9.3;                                  ! Version Identifier

OS:Construction,
  {8fc09f35-f075-4696-b443-1254211ad69a}, ! Handle
  Title 24-2008 Nonres 15 Ext Wall Metal Building, ! Name
  ,                                       ! Surface Rendering Name
  {443dfcb4-f3db-4714-9131-0b55d35664d4}, ! Layer 1
  {2d146754-66ee-4446-9a11-149db1ac5d80}, ! Layer 2
  {5bc76f77-190f-435c-9ff4-ab2577181d8f}; ! Layer 3

OS:Material,
  {443dfcb4-f3db-4714-9131-0b55d35664d4}, ! Handle
  Metal Siding,                           ! Name
  Smooth,                                 ! Roughness
  0.0015,                                 ! Thickness {m}
  44.96,                                  ! Conductivity {W/m-K}
  7688.86,                                ! Density {kg/m3}
  410,                                    ! Specific Heat {J/kg-K}
  0.9,                                    ! Thermal Absorptance
  0.2,                                    ! Solar Absorptance
  0.2;                                    ! Visible Absorptance

OS:Material,
  {2d146754-66ee-4446-9a11-149db1ac5d80}, ! Handle
  Wall Insulation [159],                  ! Name
  MediumRough,                            ! Roughness
  0.0812,                                 ! Thickness {m}
  0.045,                                  ! Conductivity {W/m-K}
  265,                                    ! Density {kg/m3}
  836.8,                                  ! Specific Heat {J/kg-K}
  0.9,                                    ! Thermal Absorptance
  0.7,                                    ! Solar Absorptance
  0.7;                                    ! Visible Absorptance

OS:Material,
  {5bc76f77-190f-435c-9ff4-ab2577181d8f}, ! Handle
  1/2IN Gypsum,                           ! Name
  Smooth,                                 ! Roughness
  0.01271,                                ! Thickness {m}
  0.16,                                   ! Conductivity {W/m-K}
  784.9,                                  ! Density {kg/m3}
  830,                                    ! Specific Heat {J/kg-K}
  0.9,                                    ! Thermal Absorptance
  0.92,                                   ! Solar Absorptance
  0.92;                                   ! Visible Absorptance

OS:ComponentCost:LineItem,
  {7bfe2989-1680-4b4d-a73b-fa02cdf326d1}, ! Handle
  Title 24-2008 Nonres 15 Ext Wall Metal Building, ! Name
  ,                                       ! Type
  Construction,                           ! Line Item Type
  Title 24-2008 Nonres 15 Ext Wall Metal Building, ! Item Name
  ,                                       ! Object End Use Key
  ,                                       ! Quantity {dimensionless}
  184.211,                                ! Material Cost {$}
  CostPerArea;                            ! Material Cost Units

