
OS:Version,
  {99ae8f62-a6db-4386-bf65-9389923f835c}, ! Handle
  0.9.3;                                  ! Version Identifier

OS:Construction,
  {421fb7db-23d4-4191-9070-2e4674470f3e}, ! Handle
  90.1-2001 Res B3 Roof IEAD,             ! Name
  ,                                       ! Surface Rendering Name
  {79347f18-5a62-4224-83bd-21e987718d0a}, ! Layer 1
  {30fc8825-c009-4d3a-86e3-7d2d253d55d8}, ! Layer 2
  {bd4fd374-de41-4180-9863-5fd933e96569}; ! Layer 3

OS:Material,
  {79347f18-5a62-4224-83bd-21e987718d0a}, ! Handle
  Roof Membrane,                          ! Name
  VeryRough,                              ! Roughness
  0.0095,                                 ! Thickness {m}
  0.16,                                   ! Conductivity {W/m-K}
  1121.29,                                ! Density {kg/m3}
  1460,                                   ! Specific Heat {J/kg-K}
  0.9,                                    ! Thermal Absorptance
  0.7,                                    ! Solar Absorptance
  0.7;                                    ! Visible Absorptance

OS:Material,
  {30fc8825-c009-4d3a-86e3-7d2d253d55d8}, ! Handle
  Roof Insulation,                        ! Name
  MediumRough,                            ! Roughness
  0.124958,                               ! Thickness {m}
  0.049,                                  ! Conductivity {W/m-K}
  265,                                    ! Density {kg/m3}
  836.8,                                  ! Specific Heat {J/kg-K}
  0.9,                                    ! Thermal Absorptance
  0.7,                                    ! Solar Absorptance
  0.7;                                    ! Visible Absorptance

OS:Material,
  {bd4fd374-de41-4180-9863-5fd933e96569}, ! Handle
  Metal Decking,                          ! Name
  MediumSmooth,                           ! Roughness
  0.001524,                               ! Thickness {m}
  45.006,                                 ! Conductivity {W/m-K}
  7680,                                   ! Density {kg/m3}
  418.4,                                  ! Specific Heat {J/kg-K}
  0.9,                                    ! Thermal Absorptance
  0.7,                                    ! Solar Absorptance
  0.3;                                    ! Visible Absorptance

OS:ComponentCost:LineItem,
  {412bea35-d7fe-4628-b378-d65c2202fbcd}, ! Handle
  90.1-2001 Res B3 Roof IEAD,             ! Name
  ,                                       ! Type
  Construction,                           ! Line Item Type
  90.1-2001 Res B3 Roof IEAD,             ! Item Name
  ,                                       ! Object End Use Key
  ,                                       ! Quantity {dimensionless}
  49.208,                                 ! Material Cost {$}
  CostPerArea;                            ! Material Cost Units

OS:ComponentData,
  {5b140b73-8a53-41e0-9dc9-b81b2279a888}, ! Handle
  Component Data 1,                       ! Name
  {53690ecb-dd71-4568-bbdf-c4da6099b606}, ! UUID
  {829a1522-645f-447a-9247-f16dbee972ef}, ! Version UUID
  1363981457,                             ! Creation Timestamp
  1363981457,                             ! Version Timestamp
  {421fb7db-23d4-4191-9070-2e4674470f3e}, ! Name of Object 1
  {79347f18-5a62-4224-83bd-21e987718d0a}, ! Name of Object 2
  {30fc8825-c009-4d3a-86e3-7d2d253d55d8}, ! Name of Object 3
  {bd4fd374-de41-4180-9863-5fd933e96569}, ! Name of Object 4
  {412bea35-d7fe-4628-b378-d65c2202fbcd}; ! Name of Object 5

