
OS:Version,
  {b11ff5ad-d66d-4651-ab63-3d7392024279}, ! Handle
  0.9.3;                                  ! Version Identifier

OS:Material,
  {74c57d43-2a3c-43f2-a57a-754da6ba3a8c}, ! Handle
  Roof Membrane,                          ! Name
  VeryRough,                              ! Roughness
  0.0095,                                 ! Thickness {m}
  0.16,                                   ! Conductivity {W/m-K}
  1121.29,                                ! Density {kg/m3}
  1460,                                   ! Specific Heat {J/kg-K}
  0.9,                                    ! Thermal Absorptance
  0.7,                                    ! Solar Absorptance
  0.7;                                    ! Visible Absorptance

OS:ComponentCost:LineItem,
  {835ad1b5-74ec-4195-b785-b8d902cc6d5a}, ! Handle
  90.1-2001 Res B3 Roof IEAD,             ! Name
  ,                                       ! Type
  Construction,                           ! Line Item Type
  90.1-2001 Res B3 Roof IEAD,             ! Item Name
  ,                                       ! Object End Use Key
  ,                                       ! Quantity {dimensionless}
  49.208,                                 ! Material Cost {$}
  CostPerArea;                            ! Material Cost Units

OS:Material,
  {1d7d9c6d-3831-4695-a2d3-bdf52756f1cd}, ! Handle
  Roof Insulation,                        ! Name
  MediumRough,                            ! Roughness
  0.124958,                               ! Thickness {m}
  0.049,                                  ! Conductivity {W/m-K}
  265,                                    ! Density {kg/m3}
  836.8,                                  ! Specific Heat {J/kg-K}
  0.9,                                    ! Thermal Absorptance
  0.7,                                    ! Solar Absorptance
  0.7;                                    ! Visible Absorptance

OS:Material,
  {caccfbb0-39db-4f41-875e-eb319fa2be91}, ! Handle
  Metal Decking,                          ! Name
  MediumSmooth,                           ! Roughness
  0.001524,                               ! Thickness {m}
  45.006,                                 ! Conductivity {W/m-K}
  7680,                                   ! Density {kg/m3}
  418.4,                                  ! Specific Heat {J/kg-K}
  0.9,                                    ! Thermal Absorptance
  0.7,                                    ! Solar Absorptance
  0.3;                                    ! Visible Absorptance

OS:Construction,
  {7bfd739f-7101-415f-9d4e-5329032d59f4}, ! Handle
  90.1-2001 Res B3 Roof IEAD,             ! Name
  ,                                       ! Surface Rendering Name
  {74c57d43-2a3c-43f2-a57a-754da6ba3a8c}, ! Layer 1
  {1d7d9c6d-3831-4695-a2d3-bdf52756f1cd}, ! Layer 2
  {caccfbb0-39db-4f41-875e-eb319fa2be91}; ! Layer 3

