
OS:Version,
  {e0e66378-5607-460c-8a38-efeaf4606d8e}, ! Handle
  0.9.3;                                  ! Version Identifier

OS:WindowMaterial:Glazing,
  {08c4cc94-2171-4861-b682-359dba2e67c8}, ! Handle
  Theoretical Glass [183],                ! Name
  SpectralAverage,                        ! Optical Data Type
  ,                                       ! Window Glass Spectral Data Set Name
  0.003,                                  ! Thickness {m}
  0.395208,                               ! Solar Transmittance at Normal Incidence
  0.554792,                               ! Front Side Solar Reflectance at Normal Incidence
  0.554792,                               ! Back Side Solar Reflectance at Normal Incidence
  0.507883,                               ! Visible Transmittance at Normal Incidence
  0.442117,                               ! Front Side Visible Reflectance at Normal Incidence
  0.442117,                               ! Back Side Visible Reflectance at Normal Incidence
  0,                                      ! Infrared Transmittance at Normal Incidence
  0.9,                                    ! Front Side Infrared Hemispherical Emissivity
  0.9,                                    ! Back Side Infrared Hemispherical Emissivity
  0.00882612;                             ! Conductivity {W/m-K}

OS:Construction,
  {e784cbb3-1f2f-4311-9df2-0c824aa3a77a}, ! Handle
  90.1-2007 Res 5B Window Nonmetal framing, ! Name
  ,                                       ! Surface Rendering Name
  {08c4cc94-2171-4861-b682-359dba2e67c8}; ! Layer 1

OS:ComponentCost:LineItem,
  {e21a367f-d550-4bf2-af9a-043e2482aa63}, ! Handle
  90.1-2007 Res 5B Window Nonmetal framing, ! Name
  ,                                       ! Type
  Construction,                           ! Line Item Type
  90.1-2007 Res 5B Window Nonmetal framing, ! Item Name
  ,                                       ! Object End Use Key
  ,                                       ! Quantity {dimensionless}
  512.02,                                 ! Material Cost {$}
  CostPerArea;                            ! Material Cost Units

