
OS:Version,
  {7331fc26-7da3-41b4-973f-4991b4804d3e}, ! Handle
  0.9.3;                                  ! Version Identifier

OS:Construction,
  {c85a911a-42c4-496c-95c7-4769da2578e1}, ! Handle
  189.1-2009 Nonres 4B Ext Slab Unheated - 8in Slab without Carpet, ! Name
  ,                                       ! Surface Rendering Name
  {928686ba-cabd-457d-9dea-3d4f49a91fda}; ! Layer 1

OS:Material,
  {928686ba-cabd-457d-9dea-3d4f49a91fda}, ! Handle
  MAT-CC05 8 HW CONCRETE,                 ! Name
  Rough,                                  ! Roughness
  0.20321,                                ! Thickness {m}
  1.311,                                  ! Conductivity {W/m-K}
  2240,                                   ! Density {kg/m3}
  836.8,                                  ! Specific Heat {J/kg-K}
  0.9,                                    ! Thermal Absorptance
  0.7,                                    ! Solar Absorptance
  0.7;                                    ! Visible Absorptance

OS:ComponentCost:LineItem,
  {881fe6a5-b967-4f1d-8bf4-42a744e02e14}, ! Handle
  189.1-2009 Nonres 4B Ext Slab Unheated - 8in Slab without Carpet, ! Name
  ,                                       ! Type
  Construction,                           ! Line Item Type
  189.1-2009 Nonres 4B Ext Slab Unheated - 8in Slab without Carpet, ! Item Name
  ,                                       ! Object End Use Key
  ,                                       ! Quantity {dimensionless}
  45.52,                                  ! Material Cost {$}
  CostPerArea;                            ! Material Cost Units

OS:ComponentData,
  {2dfe21ea-c864-4fad-b8f4-79b35d379f65}, ! Handle
  Component Data 1,                       ! Name
  {b4d090a4-515d-4dbf-a73f-1553848e410b}, ! UUID
  {92fd53c9-df75-4738-9185-59822948f30f}, ! Version UUID
  1363980940,                             ! Creation Timestamp
  1363980940,                             ! Version Timestamp
  {c85a911a-42c4-496c-95c7-4769da2578e1}, ! Name of Object 1
  {928686ba-cabd-457d-9dea-3d4f49a91fda}, ! Name of Object 2
  {881fe6a5-b967-4f1d-8bf4-42a744e02e14}; ! Name of Object 3

