
OS:Version,
  {32b4c1b0-0ff1-4090-b2fb-6e1aa8431b26}, ! Handle
  0.9.3;                                  ! Version Identifier

OS:Material,
  {cad2b4d2-e60d-4785-bacd-2bd00b90f889}, ! Handle
  MAT-CC05 8 HW CONCRETE,                 ! Name
  Rough,                                  ! Roughness
  0.20321,                                ! Thickness {m}
  1.311,                                  ! Conductivity {W/m-K}
  2240,                                   ! Density {kg/m3}
  836.8,                                  ! Specific Heat {J/kg-K}
  0.9,                                    ! Thermal Absorptance
  0.7,                                    ! Solar Absorptance
  0.7;                                    ! Visible Absorptance

OS:ComponentCost:LineItem,
  {168c223d-80fb-445c-85cb-f96977388a65}, ! Handle
  189.1-2009 Nonres 4B Ext Slab Unheated - 8in Slab without Carpet, ! Name
  ,                                       ! Type
  Construction,                           ! Line Item Type
  189.1-2009 Nonres 4B Ext Slab Unheated - 8in Slab without Carpet, ! Item Name
  ,                                       ! Object End Use Key
  ,                                       ! Quantity {dimensionless}
  45.52,                                  ! Material Cost {$}
  CostPerArea;                            ! Material Cost Units

OS:Construction,
  {b74b9b1e-442e-4474-9af5-ebfd4d881069}, ! Handle
  189.1-2009 Nonres 4B Ext Slab Unheated - 8in Slab without Carpet, ! Name
  ,                                       ! Surface Rendering Name
  {cad2b4d2-e60d-4785-bacd-2bd00b90f889}; ! Layer 1

