
OS:Version,
  {452e63dd-a3c4-41e1-a277-eff78f9450b6}, ! Handle
  0.9.3;                                  ! Version Identifier

OS:Construction,
  {96d0878b-0f89-4330-b35a-9c33c1ee3ac4}, ! Handle
  90.1-2007 Res 7A Ext Slab Unheated - 8in Slab with Carpet, ! Name
  ,                                       ! Surface Rendering Name
  {6d0664f9-5a27-4f49-ae4f-24742d4f50da}, ! Layer 1
  {c9fe2ccc-5547-4153-ac89-3ed4e7fc800f}; ! Layer 2

OS:Material,
  {6d0664f9-5a27-4f49-ae4f-24742d4f50da}, ! Handle
  MAT-CC05 8 HW CONCRETE,                 ! Name
  Rough,                                  ! Roughness
  0.20321,                                ! Thickness {m}
  1.311,                                  ! Conductivity {W/m-K}
  2240,                                   ! Density {kg/m3}
  836.8,                                  ! Specific Heat {J/kg-K}
  0.9,                                    ! Thermal Absorptance
  0.7,                                    ! Solar Absorptance
  0.7;                                    ! Visible Absorptance

OS:Material:NoMass,
  {c9fe2ccc-5547-4153-ac89-3ed4e7fc800f}, ! Handle
  CP02 CARPET PAD,                        ! Name
  VeryRough,                              ! Roughness
  0.21648,                                ! Thermal Resistance {m2-K/W}
  0.9,                                    ! Thermal Absorptance
  0.7,                                    ! Solar Absorptance
  0.8;                                    ! Visible Absorptance

OS:ComponentCost:LineItem,
  {22b05bae-17b1-4cf9-a7d1-b2aac9d07dfd}, ! Handle
  90.1-2007 Res 7A Ext Slab Unheated - 8in Slab with Carpet, ! Name
  ,                                       ! Type
  Construction,                           ! Line Item Type
  90.1-2007 Res 7A Ext Slab Unheated - 8in Slab with Carpet, ! Item Name
  ,                                       ! Object End Use Key
  ,                                       ! Quantity {dimensionless}
  45.52,                                  ! Material Cost {$}
  CostPerArea;                            ! Material Cost Units

OS:ComponentData,
  {7813e307-4c4c-40bd-aca3-cb582083c7d8}, ! Handle
  Component Data 1,                       ! Name
  {7040d132-df0e-4ab2-8348-340b4948a58a}, ! UUID
  {d3ef2d42-43d0-46cd-9695-b3c0db776c2d}, ! Version UUID
  1363981871,                             ! Creation Timestamp
  1363981871,                             ! Version Timestamp
  {96d0878b-0f89-4330-b35a-9c33c1ee3ac4}, ! Name of Object 1
  {6d0664f9-5a27-4f49-ae4f-24742d4f50da}, ! Name of Object 2
  {c9fe2ccc-5547-4153-ac89-3ed4e7fc800f}, ! Name of Object 3
  {22b05bae-17b1-4cf9-a7d1-b2aac9d07dfd}; ! Name of Object 4

