
OS:Version,
  {b86867fc-e909-4350-9e26-80257fdf5212}, !- Handle
  1.0.6;                                  !- Version Identifier

OS:WindowMaterial:Glazing,
  {39decea8-cb85-4436-b02f-44f2b04a408c}, !- Handle
  189.1-2011 NONRES 8A NONMETAL FRAMING THEORETICAL GLAZING, !- Name
  SpectralAverage,                        !- Optical Data Type
  ,                                       !- Window Glass Spectral Data Set Name
  0.04563,                                !- Thickness {m}
  0.36619,                                !- Solar Transmittance at Normal Incidence
  0.44496,                                !- Front Side Solar Reflectance at Normal Incidence
  0.44496,                                !- Back Side Solar Reflectance at Normal Incidence
  0.36619,                                !- Visible Transmittance at Normal Incidence
  0.44496,                                !- Front Side Visible Reflectance at Normal Incidence
  0.44496,                                !- Back Side Visible Reflectance at Normal Incidence
  0,                                      !- Infrared Transmittance at Normal Incidence
  0.84,                                   !- Front Side Infrared Hemispherical Emissivity
  0.84,                                   !- Back Side Infrared Hemispherical Emissivity
  0.08632,                                !- Conductivity {W/m-K}
  1,                                      !- Dirt Correction Factor for Solar and Visible Transmittance
  No;                                     !- Solar Diffusing

OS:Construction,
  {2f4a360a-95ec-4545-a06f-36ad2b840da2}, !- Handle
  189.1-2011 NONRES 8 NONMETAL FRAMING,   !- Name
  ,                                       !- Surface Rendering Name
  {39decea8-cb85-4436-b02f-44f2b04a408c}; !- Layer 1

