
OS:Version,
  {6b4d6d86-0b06-48a4-9533-f98ffb8335b2}, !- Handle
  1.0.6;                                  !- Version Identifier

OS:Construction,
  {ec315c74-73fd-4e3f-885f-65e345544b38}, !- Handle
  189.1-2011 NONRES 8 NONMETAL FRAMING,   !- Name
  ,                                       !- Surface Rendering Name
  {7ebf0377-2501-47c0-acdd-f004201e7634}; !- Layer 1

OS:WindowMaterial:Glazing,
  {7ebf0377-2501-47c0-acdd-f004201e7634}, !- Handle
  189.1-2011 NONRES 8A NONMETAL FRAMING THEORETICAL GLAZING, !- Name
  SpectralAverage,                        !- Optical Data Type
  ,                                       !- Window Glass Spectral Data Set Name
  0.04563,                                !- Thickness {m}
  0.36619,                                !- Solar Transmittance at Normal Incidence
  0.44496,                                !- Front Side Solar Reflectance at Normal Incidence
  0.44496,                                !- Back Side Solar Reflectance at Normal Incidence
  0.36619,                                !- Visible Transmittance at Normal Incidence
  0.44496,                                !- Front Side Visible Reflectance at Normal Incidence
  0.44496,                                !- Back Side Visible Reflectance at Normal Incidence
  0,                                      !- Infrared Transmittance at Normal Incidence
  0.84,                                   !- Front Side Infrared Hemispherical Emissivity
  0.84,                                   !- Back Side Infrared Hemispherical Emissivity
  0.08632,                                !- Conductivity {W/m-K}
  1,                                      !- Dirt Correction Factor for Solar and Visible Transmittance
  No;                                     !- Solar Diffusing

OS:ComponentData,
  {f6e89084-ea0b-46b3-8b79-dc44618d2dd7}, !- Handle
  Component Data 1,                       !- Name
  {fe9c5a41-c642-45bc-a01d-38cfbd8c4caf}, !- UUID
  {fba47136-b523-4c6a-9466-280cdce1c897}, !- Version UUID
  1380911254,                             !- Creation Timestamp
  1380911254,                             !- Version Timestamp
  {ec315c74-73fd-4e3f-885f-65e345544b38}, !- Name of Object 1
  {7ebf0377-2501-47c0-acdd-f004201e7634}; !- Name of Object 2

