
OS:Version,
  {6f702e72-68ed-405f-a611-782cc6fc1c57}, ! Handle
  0.9.3;                                  ! Version Identifier

OS:Construction,
  {2a4b16fd-655a-4d8f-813e-00e64ed3102e}, ! Handle
  90.1-2001 Res B7 Roof Metal Building,   ! Name
  ,                                       ! Surface Rendering Name
  {847ee238-9db7-4e67-b1e0-d1433e19526f}, ! Layer 1
  {419578c6-f78b-46dc-ab41-21d0e5d3dc7a}; ! Layer 2

OS:Material,
  {847ee238-9db7-4e67-b1e0-d1433e19526f}, ! Handle
  Metal Roofing,                          ! Name
  MediumSmooth,                           ! Roughness
  0.001524,                               ! Thickness {m}
  45.006,                                 ! Conductivity {W/m-K}
  7680,                                   ! Density {kg/m3}
  418.4,                                  ! Specific Heat {J/kg-K}
  0.9,                                    ! Thermal Absorptance
  0.7,                                    ! Solar Absorptance
  0.3;                                    ! Visible Absorptance

OS:Material,
  {419578c6-f78b-46dc-ab41-21d0e5d3dc7a}, ! Handle
  Roof Insulation [1],                    ! Name
  MediumRough,                            ! Roughness
  0.123533,                               ! Thickness {m}
  0.049,                                  ! Conductivity {W/m-K}
  265,                                    ! Density {kg/m3}
  836.8,                                  ! Specific Heat {J/kg-K}
  0.9,                                    ! Thermal Absorptance
  0.7,                                    ! Solar Absorptance
  0.7;                                    ! Visible Absorptance

OS:ComponentCost:LineItem,
  {bf26ee6a-1aab-4987-b174-8652e0db44fc}, ! Handle
  90.1-2001 Res B7 Roof Metal Building,   ! Name
  ,                                       ! Type
  Construction,                           ! Line Item Type
  90.1-2001 Res B7 Roof Metal Building,   ! Item Name
  ,                                       ! Object End Use Key
  ,                                       ! Quantity {dimensionless}
  38.206,                                 ! Material Cost {$}
  CostPerArea;                            ! Material Cost Units

