
OS:Version,
  {85fa6ca5-974d-4ab5-aba7-3e3f2ca9fbff}, ! Handle
  0.9.3;                                  ! Version Identifier

OS:Construction,
  {20892c98-87fe-4127-af66-48adbcbb6b0c}, ! Handle
  90.1-2001 Res B22 Roof Attic and Other, ! Name
  ,                                       ! Surface Rendering Name
  {e04695fc-bf78-428f-b3f7-4d4f71cc89bf}, ! Layer 1
  {2af0981e-0b07-4aed-92ad-614711d4493c}, ! Layer 2
  {8ea3ff4e-2a8b-4ed1-8184-3042a7b174ab}, ! Layer 3
  {ad1af8db-a824-43a8-a7d8-f363353d7b18}; ! Layer 4

OS:Material,
  {e04695fc-bf78-428f-b3f7-4d4f71cc89bf}, ! Handle
  Wood Shingles,                          ! Name
  VeryRough,                              ! Roughness
  0.0178,                                 ! Thickness {m}
  0.115,                                  ! Conductivity {W/m-K}
  513,                                    ! Density {kg/m3}
  1255,                                   ! Specific Heat {J/kg-K}
  0.9,                                    ! Thermal Absorptance
  0.78,                                   ! Solar Absorptance
  0.78;                                   ! Visible Absorptance

OS:Material,
  {2af0981e-0b07-4aed-92ad-614711d4493c}, ! Handle
  1IN Wood Decking,                       ! Name
  MediumSmooth,                           ! Roughness
  0.0254,                                 ! Thickness {m}
  0.1211,                                 ! Conductivity {W/m-K}
  593,                                    ! Density {kg/m3}
  2510,                                   ! Specific Heat {J/kg-K}
  0.9,                                    ! Thermal Absorptance
  0.78,                                   ! Solar Absorptance
  0.78;                                   ! Visible Absorptance

OS:Material,
  {8ea3ff4e-2a8b-4ed1-8184-3042a7b174ab}, ! Handle
  Roof Insulation [5],                    ! Name
  MediumRough,                            ! Roughness
  0.286906,                               ! Thickness {m}
  0.049,                                  ! Conductivity {W/m-K}
  265,                                    ! Density {kg/m3}
  836.8,                                  ! Specific Heat {J/kg-K}
  0.9,                                    ! Thermal Absorptance
  0.7,                                    ! Solar Absorptance
  0.7;                                    ! Visible Absorptance

OS:Material,
  {ad1af8db-a824-43a8-a7d8-f363353d7b18}, ! Handle
  1/2IN Gypsum,                           ! Name
  Smooth,                                 ! Roughness
  0.01271,                                ! Thickness {m}
  0.16,                                   ! Conductivity {W/m-K}
  784.9,                                  ! Density {kg/m3}
  830,                                    ! Specific Heat {J/kg-K}
  0.9,                                    ! Thermal Absorptance
  0.92,                                   ! Solar Absorptance
  0.92;                                   ! Visible Absorptance

OS:ComponentCost:LineItem,
  {1da03f2a-abbe-4213-8510-814c072c2f57}, ! Handle
  90.1-2001 Res B22 Roof Attic and Other, ! Name
  ,                                       ! Type
  Construction,                           ! Line Item Type
  90.1-2001 Res B22 Roof Attic and Other, ! Item Name
  ,                                       ! Object End Use Key
  ,                                       ! Quantity {dimensionless}
  34.757,                                 ! Material Cost {$}
  CostPerArea;                            ! Material Cost Units

