
OS:Version,
  {19c3ef8d-81a0-4bb6-8c92-70afe4ea0c4c}, ! Handle
  0.9.3;                                  ! Version Identifier

OS:ComponentCost:LineItem,
  {046a32fc-dd71-4200-b6c7-b7a086cf634f}, ! Handle
  90.1-1999 Nonres B7 Int Wall,           ! Name
  ,                                       ! Type
  Construction,                           ! Line Item Type
  90.1-1999 Nonres B7 Int Wall,           ! Item Name
  ,                                       ! Object End Use Key
  ,                                       ! Quantity {dimensionless}
  0,                                      ! Material Cost {$}
  CostPerArea;                            ! Material Cost Units

OS:Material,
  {f347a8e2-5337-4f0b-85c1-53a68008ec65}, ! Handle
  GP01 1/2 GYPSUM 1,                      ! Name
  Smooth,                                 ! Roughness
  0.01271,                                ! Thickness {m}
  0.16,                                   ! Conductivity {W/m-K}
  800,                                    ! Density {kg/m3}
  1090,                                   ! Specific Heat {J/kg-K}
  0.9,                                    ! Thermal Absorptance
  0.7,                                    ! Solar Absorptance
  0.5;                                    ! Visible Absorptance

OS:Construction,
  {9d8386a0-6d5b-4d1e-b95a-6a61984e5769}, ! Handle
  90.1-1999 Nonres B7 Int Wall,           ! Name
  ,                                       ! Surface Rendering Name
  {de845b13-1147-4ce6-9ca5-a8910090e7dd}, ! Layer 1
  {de845b13-1147-4ce6-9ca5-a8910090e7dd}; ! Layer 2

OS:Material,
  {de845b13-1147-4ce6-9ca5-a8910090e7dd}, ! Handle
  GP01 1/2 GYPSUM,                        ! Name
  Smooth,                                 ! Roughness
  0.01271,                                ! Thickness {m}
  0.16,                                   ! Conductivity {W/m-K}
  800,                                    ! Density {kg/m3}
  1090,                                   ! Specific Heat {J/kg-K}
  0.9,                                    ! Thermal Absorptance
  0.7,                                    ! Solar Absorptance
  0.5;                                    ! Visible Absorptance

