
OS:Version,
  {6e6121fc-b9b3-4f3b-9856-1668a05e8492}, ! Handle
  0.9.3;                                  ! Version Identifier

OS:Construction,
  {9d87515c-2313-48b4-bf54-c1b37b07ec74}, ! Handle
  189.1-2009 Nonres 8A Int Wall,          ! Name
  ,                                       ! Surface Rendering Name
  {8ef2dfe8-3900-4549-ab9d-938c152721ed}, ! Layer 1
  {8ef2dfe8-3900-4549-ab9d-938c152721ed}; ! Layer 2

OS:Material,
  {8ef2dfe8-3900-4549-ab9d-938c152721ed}, ! Handle
  GP01 1/2 GYPSUM,                        ! Name
  Smooth,                                 ! Roughness
  0.01271,                                ! Thickness {m}
  0.16,                                   ! Conductivity {W/m-K}
  800,                                    ! Density {kg/m3}
  1090,                                   ! Specific Heat {J/kg-K}
  0.9,                                    ! Thermal Absorptance
  0.7,                                    ! Solar Absorptance
  0.5;                                    ! Visible Absorptance

OS:Material,
  {584a1389-8d44-465d-8ef1-5192a973adcb}, ! Handle
  GP01 1/2 GYPSUM 1,                      ! Name
  Smooth,                                 ! Roughness
  0.01271,                                ! Thickness {m}
  0.16,                                   ! Conductivity {W/m-K}
  800,                                    ! Density {kg/m3}
  1090,                                   ! Specific Heat {J/kg-K}
  0.9,                                    ! Thermal Absorptance
  0.7,                                    ! Solar Absorptance
  0.5;                                    ! Visible Absorptance

OS:ComponentCost:LineItem,
  {4a42f644-368d-45c9-9ccf-57156e78c8cf}, ! Handle
  189.1-2009 Nonres 8A Int Wall,          ! Name
  ,                                       ! Type
  Construction,                           ! Line Item Type
  189.1-2009 Nonres 8A Int Wall,          ! Item Name
  ,                                       ! Object End Use Key
  ,                                       ! Quantity {dimensionless}
  0,                                      ! Material Cost {$}
  CostPerArea;                            ! Material Cost Units

