
OS:Version,
  {f52e88e7-f7d0-4b63-9317-6286f96c66dc}, ! Handle
  0.9.3;                                  ! Version Identifier

OS:Material,
  {1bb3234f-2073-4a9a-874b-6e9c87d211b2}, ! Handle
  Wall Insulation [159],                  ! Name
  MediumRough,                            ! Roughness
  0.0812,                                 ! Thickness {m}
  0.045,                                  ! Conductivity {W/m-K}
  265,                                    ! Density {kg/m3}
  836.8,                                  ! Specific Heat {J/kg-K}
  0.9,                                    ! Thermal Absorptance
  0.7,                                    ! Solar Absorptance
  0.7;                                    ! Visible Absorptance

OS:Construction,
  {fef2edcd-f909-4032-9f17-c92c20fa0797}, ! Handle
  Title 24-2008 Nonres 5 Ext Wall Steel-Framed, ! Name
  ,                                       ! Surface Rendering Name
  {f866cf8c-6f9b-4f9c-8f12-8f8267dd41da}, ! Layer 1
  {1bb3234f-2073-4a9a-874b-6e9c87d211b2}, ! Layer 2
  {cb3e1198-ef67-42a4-8446-90c4a7139c97}; ! Layer 3

OS:Material:NoMass,
  {f866cf8c-6f9b-4f9c-8f12-8f8267dd41da}, ! Handle
  MAT-SHEATH,                             ! Name
  Rough,                                  ! Roughness
  0.36256,                                ! Thermal Resistance {m2-K/W}
  0.9,                                    ! Thermal Absorptance
  0.7,                                    ! Solar Absorptance
  0.7;                                    ! Visible Absorptance

OS:Material,
  {cb3e1198-ef67-42a4-8446-90c4a7139c97}, ! Handle
  1/2IN Gypsum,                           ! Name
  Smooth,                                 ! Roughness
  0.01271,                                ! Thickness {m}
  0.16,                                   ! Conductivity {W/m-K}
  784.9,                                  ! Density {kg/m3}
  830,                                    ! Specific Heat {J/kg-K}
  0.9,                                    ! Thermal Absorptance
  0.92,                                   ! Solar Absorptance
  0.92;                                   ! Visible Absorptance

OS:ComponentCost:LineItem,
  {e8f88aff-ca2b-4b74-bb6a-cf8b7f238bf3}, ! Handle
  Title 24-2008 Nonres 5 Ext Wall Steel-Framed, ! Name
  ,                                       ! Type
  Construction,                           ! Line Item Type
  Title 24-2008 Nonres 5 Ext Wall Steel-Framed, ! Item Name
  ,                                       ! Object End Use Key
  ,                                       ! Quantity {dimensionless}
  155.805,                                ! Material Cost {$}
  CostPerArea;                            ! Material Cost Units

