
OS:Version,
  {73aeac87-9d04-4559-941b-babd63f37548}, ! Handle
  0.9.3;                                  ! Version Identifier

OS:Construction,
  {60e57476-ea74-405c-b15a-21d3432b3b57}, ! Handle
  AEDG-SmOffice 2A Ext Slab Unheated - 4in Slab without Carpet, ! Name
  ,                                       ! Surface Rendering Name
  {88cfcacd-1c6f-4b6a-9e5f-83760b08f97c}; ! Layer 1

OS:Material,
  {88cfcacd-1c6f-4b6a-9e5f-83760b08f97c}, ! Handle
  MAT-CC05 4 HW CONCRETE,                 ! Name
  Rough,                                  ! Roughness
  0.1016,                                 ! Thickness {m}
  1.311,                                  ! Conductivity {W/m-K}
  2240,                                   ! Density {kg/m3}
  836.8,                                  ! Specific Heat {J/kg-K}
  0.9,                                    ! Thermal Absorptance
  0.7,                                    ! Solar Absorptance
  0.7;                                    ! Visible Absorptance

OS:ComponentCost:LineItem,
  {290bf8ad-b703-4d6e-8a74-9e2bc2f245d0}, ! Handle
  AEDG-SmOffice 2A Ext Slab Unheated - 4in Slab without Carpet, ! Name
  ,                                       ! Type
  Construction,                           ! Line Item Type
  AEDG-SmOffice 2A Ext Slab Unheated - 4in Slab without Carpet, ! Item Name
  ,                                       ! Object End Use Key
  ,                                       ! Quantity {dimensionless}
  45.52,                                  ! Material Cost {$}
  CostPerArea;                            ! Material Cost Units

