
OS:Version,
  {467342fe-b970-4f78-bab1-ba5426af092d}, ! Handle
  0.9.3;                                  ! Version Identifier

OS:Construction,
  {4f50681e-a1d2-43bb-a38d-673843f63f7c}, ! Handle
  AEDG-SmOffice 2A Ext Slab Unheated - 4in Slab without Carpet, ! Name
  ,                                       ! Surface Rendering Name
  {52f73a40-5c80-4e50-8d03-c848846d3ebf}; ! Layer 1

OS:Material,
  {52f73a40-5c80-4e50-8d03-c848846d3ebf}, ! Handle
  MAT-CC05 4 HW CONCRETE,                 ! Name
  Rough,                                  ! Roughness
  0.1016,                                 ! Thickness {m}
  1.311,                                  ! Conductivity {W/m-K}
  2240,                                   ! Density {kg/m3}
  836.8,                                  ! Specific Heat {J/kg-K}
  0.9,                                    ! Thermal Absorptance
  0.7,                                    ! Solar Absorptance
  0.7;                                    ! Visible Absorptance

OS:ComponentCost:LineItem,
  {e66600ae-72d2-454d-bdaf-f3aebc02f35b}, ! Handle
  AEDG-SmOffice 2A Ext Slab Unheated - 4in Slab without Carpet, ! Name
  ,                                       ! Type
  Construction,                           ! Line Item Type
  AEDG-SmOffice 2A Ext Slab Unheated - 4in Slab without Carpet, ! Item Name
  ,                                       ! Object End Use Key
  ,                                       ! Quantity {dimensionless}
  45.52,                                  ! Material Cost {$}
  CostPerArea;                            ! Material Cost Units

OS:ComponentData,
  {3ed41b31-37e5-4ad3-a1ca-e2176160e5fd}, ! Handle
  Component Data 1,                       ! Name
  {ff868be7-2ec8-43a8-8295-cf20e075502d}, ! UUID
  {f3164c02-bc06-42e5-9c70-54d58c383ea0}, ! Version UUID
  1363981944,                             ! Creation Timestamp
  1363981944,                             ! Version Timestamp
  {4f50681e-a1d2-43bb-a38d-673843f63f7c}, ! Name of Object 1
  {52f73a40-5c80-4e50-8d03-c848846d3ebf}, ! Name of Object 2
  {e66600ae-72d2-454d-bdaf-f3aebc02f35b}; ! Name of Object 3

