
OS:Version,
  {a9e1ab69-f1fe-4f64-80f8-84d10b2dd955}, ! Handle
  0.9.3;                                  ! Version Identifier

OS:WindowMaterial:Glazing,
  {e6174a72-ed3c-48d1-812d-2384a29619c6}, ! Handle
  Theoretical Glass [52],                 ! Name
  SpectralAverage,                        ! Optical Data Type
  ,                                       ! Window Glass Spectral Data Set Name
  0.003,                                  ! Thickness {m}
  0.482947,                               ! Solar Transmittance at Normal Incidence
  0.467053,                               ! Front Side Solar Reflectance at Normal Incidence
  0.467053,                               ! Back Side Solar Reflectance at Normal Incidence
  0.529698,                               ! Visible Transmittance at Normal Incidence
  0.420302,                               ! Front Side Visible Reflectance at Normal Incidence
  0.420302,                               ! Back Side Visible Reflectance at Normal Incidence
  0,                                      ! Infrared Transmittance at Normal Incidence
  0.9,                                    ! Front Side Infrared Hemispherical Emissivity
  0.9,                                    ! Back Side Infrared Hemispherical Emissivity
  0.0185413;                              ! Conductivity {W/m-K}

OS:Construction,
  {751a619f-ff99-41cd-a19a-c41f20a83ffe}, ! Handle
  90.1-2001 Nonres B25 Skylight without Curb, ! Name
  ,                                       ! Surface Rendering Name
  {e6174a72-ed3c-48d1-812d-2384a29619c6}; ! Layer 1

OS:ComponentCost:LineItem,
  {489c48eb-1db2-44e3-87e8-97d2df648e98}, ! Handle
  90.1-2001 Nonres B25 Skylight without Curb, ! Name
  ,                                       ! Type
  Construction,                           ! Line Item Type
  90.1-2001 Nonres B25 Skylight without Curb, ! Item Name
  ,                                       ! Object End Use Key
  ,                                       ! Quantity {dimensionless}
  537.952,                                ! Material Cost {$}
  CostPerArea;                            ! Material Cost Units

