
OS:Version,
  {1b227a44-1de6-4817-abf1-6ae9a2f49579}, ! Handle
  0.9.3;                                  ! Version Identifier

OS:Construction,
  {472ea72a-06b7-4c81-b764-ff0cba8b3bac}, ! Handle
  90.1-2001 Nonres B25 Skylight without Curb, ! Name
  ,                                       ! Surface Rendering Name
  {bf6ec738-817c-4076-9a65-f9d9eaf43894}; ! Layer 1

OS:WindowMaterial:Glazing,
  {bf6ec738-817c-4076-9a65-f9d9eaf43894}, ! Handle
  Theoretical Glass [52],                 ! Name
  SpectralAverage,                        ! Optical Data Type
  ,                                       ! Window Glass Spectral Data Set Name
  0.003,                                  ! Thickness {m}
  0.482947,                               ! Solar Transmittance at Normal Incidence
  0.467053,                               ! Front Side Solar Reflectance at Normal Incidence
  0.467053,                               ! Back Side Solar Reflectance at Normal Incidence
  0.529698,                               ! Visible Transmittance at Normal Incidence
  0.420302,                               ! Front Side Visible Reflectance at Normal Incidence
  0.420302,                               ! Back Side Visible Reflectance at Normal Incidence
  0,                                      ! Infrared Transmittance at Normal Incidence
  0.9,                                    ! Front Side Infrared Hemispherical Emissivity
  0.9,                                    ! Back Side Infrared Hemispherical Emissivity
  0.0185413;                              ! Conductivity {W/m-K}

OS:ComponentCost:LineItem,
  {f00d640f-0eb7-4f86-8363-90cb6679e8fc}, ! Handle
  90.1-2001 Nonres B25 Skylight without Curb, ! Name
  ,                                       ! Type
  Construction,                           ! Line Item Type
  90.1-2001 Nonres B25 Skylight without Curb, ! Item Name
  ,                                       ! Object End Use Key
  ,                                       ! Quantity {dimensionless}
  537.952,                                ! Material Cost {$}
  CostPerArea;                            ! Material Cost Units

OS:ComponentData,
  {4f7fe92a-950f-4356-b057-af85a9dd1d47}, ! Handle
  Component Data 1,                       ! Name
  {776fb61e-37b8-447a-963b-e1ac158294b9}, ! UUID
  {33723c7d-6ea0-4a55-9e49-3b1e3d7675e5}, ! Version UUID
  1363981436,                             ! Creation Timestamp
  1363981436,                             ! Version Timestamp
  {472ea72a-06b7-4c81-b764-ff0cba8b3bac}, ! Name of Object 1
  {bf6ec738-817c-4076-9a65-f9d9eaf43894}, ! Name of Object 2
  {f00d640f-0eb7-4f86-8363-90cb6679e8fc}; ! Name of Object 3

