
OS:Version,
  {817283b9-0a0e-4c91-a92a-6c3b306248f9}, ! Handle
  0.9.3;                                  ! Version Identifier

OS:Construction,
  {212efae7-d7ae-4f9e-a73c-a3441a2be73e}, ! Handle
  90.1-2007 Res 5B Ext Slab Unheated - 8in Slab without Carpet, ! Name
  ,                                       ! Surface Rendering Name
  {b4a32d0a-1d64-4c14-bdce-354aba53e553}; ! Layer 1

OS:Material,
  {b4a32d0a-1d64-4c14-bdce-354aba53e553}, ! Handle
  MAT-CC05 8 HW CONCRETE,                 ! Name
  Rough,                                  ! Roughness
  0.20321,                                ! Thickness {m}
  1.311,                                  ! Conductivity {W/m-K}
  2240,                                   ! Density {kg/m3}
  836.8,                                  ! Specific Heat {J/kg-K}
  0.9,                                    ! Thermal Absorptance
  0.7,                                    ! Solar Absorptance
  0.7;                                    ! Visible Absorptance

OS:ComponentCost:LineItem,
  {f536abdb-e9ba-460c-b8ed-88eed597cc6b}, ! Handle
  90.1-2007 Res 5B Ext Slab Unheated - 8in Slab without Carpet, ! Name
  ,                                       ! Type
  Construction,                           ! Line Item Type
  90.1-2007 Res 5B Ext Slab Unheated - 8in Slab without Carpet, ! Item Name
  ,                                       ! Object End Use Key
  ,                                       ! Quantity {dimensionless}
  45.52,                                  ! Material Cost {$}
  CostPerArea;                            ! Material Cost Units

OS:ComponentData,
  {c1d44849-9390-403c-baae-0a99255b12f0}, ! Handle
  Component Data 1,                       ! Name
  {4a1976eb-8cc8-4805-bae2-7a48e8ee1aec}, ! UUID
  {9cf0b8c6-3ddf-45d9-a5ba-8208586d9e93}, ! Version UUID
  1363981859,                             ! Creation Timestamp
  1363981859,                             ! Version Timestamp
  {212efae7-d7ae-4f9e-a73c-a3441a2be73e}, ! Name of Object 1
  {b4a32d0a-1d64-4c14-bdce-354aba53e553}, ! Name of Object 2
  {f536abdb-e9ba-460c-b8ed-88eed597cc6b}; ! Name of Object 3

