
OS:Version,
  {a60842dc-2018-4d9c-9b6d-cb5e509cd4d5}, ! Handle
  0.9.3;                                  ! Version Identifier

OS:Construction,
  {152dc48d-e389-4a63-b6f5-321304f3ed43}, ! Handle
  90.1-2007 Nonres 6B Ext Slab Unheated - 8in Slab with Carpet, ! Name
  ,                                       ! Surface Rendering Name
  {f6681e65-36ea-4139-93b5-4c0292ff6b6f}, ! Layer 1
  {1916ca51-17b5-4c96-8b16-9eb54b76cecc}; ! Layer 2

OS:Material,
  {f6681e65-36ea-4139-93b5-4c0292ff6b6f}, ! Handle
  MAT-CC05 8 HW CONCRETE,                 ! Name
  Rough,                                  ! Roughness
  0.20321,                                ! Thickness {m}
  1.311,                                  ! Conductivity {W/m-K}
  2240,                                   ! Density {kg/m3}
  836.8,                                  ! Specific Heat {J/kg-K}
  0.9,                                    ! Thermal Absorptance
  0.7,                                    ! Solar Absorptance
  0.7;                                    ! Visible Absorptance

OS:Material:NoMass,
  {1916ca51-17b5-4c96-8b16-9eb54b76cecc}, ! Handle
  CP02 CARPET PAD,                        ! Name
  VeryRough,                              ! Roughness
  0.21648,                                ! Thermal Resistance {m2-K/W}
  0.9,                                    ! Thermal Absorptance
  0.7,                                    ! Solar Absorptance
  0.8;                                    ! Visible Absorptance

OS:ComponentCost:LineItem,
  {11a836ab-6bce-473a-bdaf-cf1c160e3f45}, ! Handle
  90.1-2007 Nonres 6B Ext Slab Unheated - 8in Slab with Carpet, ! Name
  ,                                       ! Type
  Construction,                           ! Line Item Type
  90.1-2007 Nonres 6B Ext Slab Unheated - 8in Slab with Carpet, ! Item Name
  ,                                       ! Object End Use Key
  ,                                       ! Quantity {dimensionless}
  45.52,                                  ! Material Cost {$}
  CostPerArea;                            ! Material Cost Units

