
OS:Version,
  {886f7563-412c-44a0-a195-9a07a7e32192}, ! Handle
  0.9.3;                                  ! Version Identifier

OS:ComponentCost:LineItem,
  {1a607dcb-4866-4661-ac6e-7da5ed6fc797}, ! Handle
  90.1-1999 Nonres B12 Ext Wall Wood-Framed and Other, ! Name
  ,                                       ! Type
  Construction,                           ! Line Item Type
  90.1-1999 Nonres B12 Ext Wall Wood-Framed and Other, ! Item Name
  ,                                       ! Object End Use Key
  ,                                       ! Quantity {dimensionless}
  73.056,                                 ! Material Cost {$}
  CostPerArea;                            ! Material Cost Units

OS:Material,
  {6e6969cf-958e-40d6-9da3-8263b0af86d2}, ! Handle
  Wall Insulation [2],                    ! Name
  MediumRough,                            ! Roughness
  0.0746874,                              ! Thickness {m}
  0.045,                                  ! Conductivity {W/m-K}
  265,                                    ! Density {kg/m3}
  836.8,                                  ! Specific Heat {J/kg-K}
  0.9,                                    ! Thermal Absorptance
  0.7,                                    ! Solar Absorptance
  0.7;                                    ! Visible Absorptance

OS:Construction,
  {2eeab048-2183-46d0-862d-b0e40bef2e95}, ! Handle
  90.1-1999 Nonres B12 Ext Wall Wood-Framed and Other, ! Name
  ,                                       ! Surface Rendering Name
  {64d9a63e-f29b-4964-96b7-95feaaccd5b4}, ! Layer 1
  {6e6969cf-958e-40d6-9da3-8263b0af86d2}, ! Layer 2
  {db6c8f8d-7708-4962-8e98-50c7dc7f089a}; ! Layer 3

OS:Material,
  {64d9a63e-f29b-4964-96b7-95feaaccd5b4}, ! Handle
  Wood Siding,                            ! Name
  MediumSmooth,                           ! Roughness
  0.01,                                   ! Thickness {m}
  0.11,                                   ! Conductivity {W/m-K}
  544.62,                                 ! Density {kg/m3}
  1210,                                   ! Specific Heat {J/kg-K}
  0.9,                                    ! Thermal Absorptance
  0.78,                                   ! Solar Absorptance
  0.78;                                   ! Visible Absorptance

OS:Material,
  {db6c8f8d-7708-4962-8e98-50c7dc7f089a}, ! Handle
  1/2IN Gypsum,                           ! Name
  Smooth,                                 ! Roughness
  0.01271,                                ! Thickness {m}
  0.16,                                   ! Conductivity {W/m-K}
  784.9,                                  ! Density {kg/m3}
  830,                                    ! Specific Heat {J/kg-K}
  0.9,                                    ! Thermal Absorptance
  0.92,                                   ! Solar Absorptance
  0.92;                                   ! Visible Absorptance

