
OS:Version,
  {1ec0560e-1f64-4926-b769-458a3e95c636}, ! Handle
  0.9.3;                                  ! Version Identifier

OS:Material,
  {88fcc6c2-0bee-4ce0-aa44-74b56ab81b4b}, ! Handle
  MAT-CC05 4 HW CONCRETE,                 ! Name
  Rough,                                  ! Roughness
  0.1016,                                 ! Thickness {m}
  1.311,                                  ! Conductivity {W/m-K}
  2240,                                   ! Density {kg/m3}
  836.8,                                  ! Specific Heat {J/kg-K}
  0.9,                                    ! Thermal Absorptance
  0.7,                                    ! Solar Absorptance
  0.7;                                    ! Visible Absorptance

OS:ComponentCost:LineItem,
  {d3008c93-073e-4489-b068-a90557db0ac8}, ! Handle
  Title 24-2008 Nonres 2 Ext Slab Unheated - 4in Slab without Carpet, ! Name
  ,                                       ! Type
  Construction,                           ! Line Item Type
  Title 24-2008 Nonres 2 Ext Slab Unheated - 4in Slab without Carpet, ! Item Name
  ,                                       ! Object End Use Key
  ,                                       ! Quantity {dimensionless}
  45.52,                                  ! Material Cost {$}
  CostPerArea;                            ! Material Cost Units

OS:Construction,
  {7d8e7a2d-0737-40f4-9057-5a03e9458e47}, ! Handle
  Title 24-2008 Nonres 2 Ext Slab Unheated - 4in Slab without Carpet, ! Name
  ,                                       ! Surface Rendering Name
  {88fcc6c2-0bee-4ce0-aa44-74b56ab81b4b}; ! Layer 1

