
OS:Version,
  {2c2eeedf-2d3a-4ed7-b2be-ecd5a55b8842}, ! Handle
  0.9.3;                                  ! Version Identifier

OS:Construction,
  {486eeb45-3fb8-4c39-938f-6af11dd881db}, ! Handle
  Title 24-2008 Nonres 2 Ext Slab Unheated - 4in Slab without Carpet, ! Name
  ,                                       ! Surface Rendering Name
  {95449623-88e5-40b4-8ce9-65de47cc3c83}; ! Layer 1

OS:Material,
  {95449623-88e5-40b4-8ce9-65de47cc3c83}, ! Handle
  MAT-CC05 4 HW CONCRETE,                 ! Name
  Rough,                                  ! Roughness
  0.1016,                                 ! Thickness {m}
  1.311,                                  ! Conductivity {W/m-K}
  2240,                                   ! Density {kg/m3}
  836.8,                                  ! Specific Heat {J/kg-K}
  0.9,                                    ! Thermal Absorptance
  0.7,                                    ! Solar Absorptance
  0.7;                                    ! Visible Absorptance

OS:ComponentCost:LineItem,
  {cfecef76-0617-4210-9caf-91dfb3432471}, ! Handle
  Title 24-2008 Nonres 2 Ext Slab Unheated - 4in Slab without Carpet, ! Name
  ,                                       ! Type
  Construction,                           ! Line Item Type
  Title 24-2008 Nonres 2 Ext Slab Unheated - 4in Slab without Carpet, ! Item Name
  ,                                       ! Object End Use Key
  ,                                       ! Quantity {dimensionless}
  45.52,                                  ! Material Cost {$}
  CostPerArea;                            ! Material Cost Units

OS:ComponentData,
  {5fd9e1a3-7f01-4b7b-a4bd-9b22baf15f2e}, ! Handle
  Component Data 1,                       ! Name
  {622a7add-01cc-4cd1-b334-092eb2f92ba6}, ! UUID
  {38de046d-6361-403d-b808-dee845946e14}, ! Version UUID
  1363981994,                             ! Creation Timestamp
  1363981994,                             ! Version Timestamp
  {486eeb45-3fb8-4c39-938f-6af11dd881db}, ! Name of Object 1
  {95449623-88e5-40b4-8ce9-65de47cc3c83}, ! Name of Object 2
  {cfecef76-0617-4210-9caf-91dfb3432471}; ! Name of Object 3

