
OS:Version,
  {7f04aaff-4117-4939-82e7-8a68c5cab5d1}, ! Handle
  0.9.3;                                  ! Version Identifier

OS:Construction,
  {8cfb5155-6ceb-4bb6-bb0c-25b0c9b54260}, ! Handle
  90.1-1999 Res B12 Ext Wall Metal Building, ! Name
  ,                                       ! Surface Rendering Name
  {26d7ef3a-fc25-4b32-b4c1-265203b7614f}, ! Layer 1
  {e6652e5a-b97d-4ea7-b63c-9ca1c585de72}, ! Layer 2
  {fd2dc70b-4cb3-4025-ba28-4a63b0e5aa56}; ! Layer 3

OS:Material,
  {26d7ef3a-fc25-4b32-b4c1-265203b7614f}, ! Handle
  Metal Siding,                           ! Name
  Smooth,                                 ! Roughness
  0.0015,                                 ! Thickness {m}
  44.96,                                  ! Conductivity {W/m-K}
  7688.86,                                ! Density {kg/m3}
  410,                                    ! Specific Heat {J/kg-K}
  0.9,                                    ! Thermal Absorptance
  0.2,                                    ! Solar Absorptance
  0.2;                                    ! Visible Absorptance

OS:Material,
  {e6652e5a-b97d-4ea7-b63c-9ca1c585de72}, ! Handle
  Wall Insulation,                        ! Name
  MediumRough,                            ! Roughness
  0.0598725,                              ! Thickness {m}
  0.045,                                  ! Conductivity {W/m-K}
  265,                                    ! Density {kg/m3}
  836.8,                                  ! Specific Heat {J/kg-K}
  0.9,                                    ! Thermal Absorptance
  0.7,                                    ! Solar Absorptance
  0.7;                                    ! Visible Absorptance

OS:Material,
  {fd2dc70b-4cb3-4025-ba28-4a63b0e5aa56}, ! Handle
  1/2IN Gypsum,                           ! Name
  Smooth,                                 ! Roughness
  0.01271,                                ! Thickness {m}
  0.16,                                   ! Conductivity {W/m-K}
  784.9,                                  ! Density {kg/m3}
  830,                                    ! Specific Heat {J/kg-K}
  0.9,                                    ! Thermal Absorptance
  0.92,                                   ! Solar Absorptance
  0.92;                                   ! Visible Absorptance

OS:ComponentCost:LineItem,
  {1e426d9b-5b6e-4981-9b68-9432776d7657}, ! Handle
  90.1-1999 Res B12 Ext Wall Metal Building, ! Name
  ,                                       ! Type
  Construction,                           ! Line Item Type
  90.1-1999 Res B12 Ext Wall Metal Building, ! Item Name
  ,                                       ! Object End Use Key
  ,                                       ! Quantity {dimensionless}
  98.78,                                  ! Material Cost {$}
  CostPerArea;                            ! Material Cost Units

