
OS:Version,
  {1a809230-cb84-490a-9a3f-769bbe763d8e}, ! Handle
  0.9.3;                                  ! Version Identifier

OS:Construction,
  {d6db3c9e-2fbf-4444-b8cc-ab17f82719c7}, ! Handle
  90.1-2001 Nonres B25 Ext Slab Unheated - 8in Slab without Carpet, ! Name
  ,                                       ! Surface Rendering Name
  {1fb1988c-9bcf-4b36-a326-2efc5bd8e661}; ! Layer 1

OS:Material,
  {1fb1988c-9bcf-4b36-a326-2efc5bd8e661}, ! Handle
  MAT-CC05 8 HW CONCRETE,                 ! Name
  Rough,                                  ! Roughness
  0.20321,                                ! Thickness {m}
  1.311,                                  ! Conductivity {W/m-K}
  2240,                                   ! Density {kg/m3}
  836.8,                                  ! Specific Heat {J/kg-K}
  0.9,                                    ! Thermal Absorptance
  0.7,                                    ! Solar Absorptance
  0.7;                                    ! Visible Absorptance

OS:ComponentCost:LineItem,
  {fc0c0a8f-4bb6-44fa-a621-f09390c4da44}, ! Handle
  90.1-2001 Nonres B25 Ext Slab Unheated - 8in Slab without Carpet, ! Name
  ,                                       ! Type
  Construction,                           ! Line Item Type
  90.1-2001 Nonres B25 Ext Slab Unheated - 8in Slab without Carpet, ! Item Name
  ,                                       ! Object End Use Key
  ,                                       ! Quantity {dimensionless}
  45.52,                                  ! Material Cost {$}
  CostPerArea;                            ! Material Cost Units

OS:ComponentData,
  {d354fde5-4e0b-447f-8552-206b860c0fed}, ! Handle
  Component Data 1,                       ! Name
  {52779c2c-5308-409f-8d5b-4c924fad220c}, ! UUID
  {282638f1-0d25-4624-ba9d-ba50fd946462}, ! Version UUID
  1363981433,                             ! Creation Timestamp
  1363981433,                             ! Version Timestamp
  {d6db3c9e-2fbf-4444-b8cc-ab17f82719c7}, ! Name of Object 1
  {1fb1988c-9bcf-4b36-a326-2efc5bd8e661}, ! Name of Object 2
  {fc0c0a8f-4bb6-44fa-a621-f09390c4da44}; ! Name of Object 3

