
OS:Version,
  {0cc6723d-06af-4cad-9f74-6e1cffee693a}, ! Handle
  0.9.3;                                  ! Version Identifier

OS:Material,
  {5de60a99-cd7a-41f7-87a7-fc18863727c7}, ! Handle
  MAT-CC05 8 HW CONCRETE,                 ! Name
  Rough,                                  ! Roughness
  0.20321,                                ! Thickness {m}
  1.311,                                  ! Conductivity {W/m-K}
  2240,                                   ! Density {kg/m3}
  836.8,                                  ! Specific Heat {J/kg-K}
  0.9,                                    ! Thermal Absorptance
  0.7,                                    ! Solar Absorptance
  0.7;                                    ! Visible Absorptance

OS:ComponentCost:LineItem,
  {c1f3aa20-1422-4ed0-9f62-24eb88141e21}, ! Handle
  90.1-2001 Nonres B25 Ext Slab Unheated - 8in Slab without Carpet, ! Name
  ,                                       ! Type
  Construction,                           ! Line Item Type
  90.1-2001 Nonres B25 Ext Slab Unheated - 8in Slab without Carpet, ! Item Name
  ,                                       ! Object End Use Key
  ,                                       ! Quantity {dimensionless}
  45.52,                                  ! Material Cost {$}
  CostPerArea;                            ! Material Cost Units

OS:Construction,
  {dedec8e7-3f3e-4ad7-b5ba-d8833c2e695c}, ! Handle
  90.1-2001 Nonres B25 Ext Slab Unheated - 8in Slab without Carpet, ! Name
  ,                                       ! Surface Rendering Name
  {5de60a99-cd7a-41f7-87a7-fc18863727c7}; ! Layer 1

