
OS:Version,
  {2f869f9d-1e7f-49ce-b055-cffbfb420ca4}, ! Handle
  0.9.3;                                  ! Version Identifier

OS:Material,
  {d810b001-d98f-4d84-b77e-95725c8d86db}, ! Handle
  1IN Wood Decking,                       ! Name
  MediumSmooth,                           ! Roughness
  0.0254,                                 ! Thickness {m}
  0.1211,                                 ! Conductivity {W/m-K}
  593,                                    ! Density {kg/m3}
  2510,                                   ! Specific Heat {J/kg-K}
  0.9,                                    ! Thermal Absorptance
  0.78,                                   ! Solar Absorptance
  0.78;                                   ! Visible Absorptance

OS:Construction,
  {3b5e6d29-76a2-46b3-8fed-2555b649d2f0}, ! Handle
  90.1-2001 Nonres B21 Roof Attic and Other, ! Name
  ,                                       ! Surface Rendering Name
  {11468763-124a-4f2c-94a5-7583875908cb}, ! Layer 1
  {d810b001-d98f-4d84-b77e-95725c8d86db}, ! Layer 2
  {1c49ee31-6f86-4d0e-b206-85eccace9f56}, ! Layer 3
  {f772f179-ad28-49a0-9fa5-d739804635b2}; ! Layer 4

OS:Material,
  {11468763-124a-4f2c-94a5-7583875908cb}, ! Handle
  Wood Shingles,                          ! Name
  VeryRough,                              ! Roughness
  0.0178,                                 ! Thickness {m}
  0.115,                                  ! Conductivity {W/m-K}
  513,                                    ! Density {kg/m3}
  1255,                                   ! Specific Heat {J/kg-K}
  0.9,                                    ! Thermal Absorptance
  0.78,                                   ! Solar Absorptance
  0.78;                                   ! Visible Absorptance

OS:Material,
  {1c49ee31-6f86-4d0e-b206-85eccace9f56}, ! Handle
  Roof Insulation [5],                    ! Name
  MediumRough,                            ! Roughness
  0.286906,                               ! Thickness {m}
  0.049,                                  ! Conductivity {W/m-K}
  265,                                    ! Density {kg/m3}
  836.8,                                  ! Specific Heat {J/kg-K}
  0.9,                                    ! Thermal Absorptance
  0.7,                                    ! Solar Absorptance
  0.7;                                    ! Visible Absorptance

OS:Material,
  {f772f179-ad28-49a0-9fa5-d739804635b2}, ! Handle
  1/2IN Gypsum,                           ! Name
  Smooth,                                 ! Roughness
  0.01271,                                ! Thickness {m}
  0.16,                                   ! Conductivity {W/m-K}
  784.9,                                  ! Density {kg/m3}
  830,                                    ! Specific Heat {J/kg-K}
  0.9,                                    ! Thermal Absorptance
  0.92,                                   ! Solar Absorptance
  0.92;                                   ! Visible Absorptance

OS:ComponentCost:LineItem,
  {04f171a4-db31-4871-a497-f465e3e62e17}, ! Handle
  90.1-2001 Nonres B21 Roof Attic and Other, ! Name
  ,                                       ! Type
  Construction,                           ! Line Item Type
  90.1-2001 Nonres B21 Roof Attic and Other, ! Item Name
  ,                                       ! Object End Use Key
  ,                                       ! Quantity {dimensionless}
  34.757,                                 ! Material Cost {$}
  CostPerArea;                            ! Material Cost Units

