
OS:Version,
  {0cef68c1-02dd-4df5-a206-8002bd2af286}, ! Handle
  0.9.3;                                  ! Version Identifier

OS:Construction,
  {199b5b69-d8e8-4e17-97d2-69794da40218}, ! Handle
  90.1-1999 Res B8 Ext Wall Steel-Framed, ! Name
  ,                                       ! Surface Rendering Name
  {6183e3ff-9f96-4e01-86d1-018e5de253ba}, ! Layer 1
  {eecec29d-8ac8-45f6-93c7-1ba98f7b5fef}, ! Layer 2
  {0abe0057-5cde-4d79-b20d-e0ff712d5a4d}; ! Layer 3

OS:Material:NoMass,
  {6183e3ff-9f96-4e01-86d1-018e5de253ba}, ! Handle
  MAT-SHEATH,                             ! Name
  Rough,                                  ! Roughness
  0.36256,                                ! Thermal Resistance {m2-K/W}
  0.9,                                    ! Thermal Absorptance
  0.7,                                    ! Solar Absorptance
  0.7;                                    ! Visible Absorptance

OS:Material,
  {eecec29d-8ac8-45f6-93c7-1ba98f7b5fef}, ! Handle
  Wall Insulation [6],                    ! Name
  MediumRough,                            ! Roughness
  0.0678449,                              ! Thickness {m}
  0.045,                                  ! Conductivity {W/m-K}
  265,                                    ! Density {kg/m3}
  836.8,                                  ! Specific Heat {J/kg-K}
  0.9,                                    ! Thermal Absorptance
  0.7,                                    ! Solar Absorptance
  0.7;                                    ! Visible Absorptance

OS:Material,
  {0abe0057-5cde-4d79-b20d-e0ff712d5a4d}, ! Handle
  1/2IN Gypsum,                           ! Name
  Smooth,                                 ! Roughness
  0.01271,                                ! Thickness {m}
  0.16,                                   ! Conductivity {W/m-K}
  784.9,                                  ! Density {kg/m3}
  830,                                    ! Specific Heat {J/kg-K}
  0.9,                                    ! Thermal Absorptance
  0.92,                                   ! Solar Absorptance
  0.92;                                   ! Visible Absorptance

OS:ComponentCost:LineItem,
  {3aae0ad9-287f-4a0c-8986-e8790d9463ea}, ! Handle
  90.1-1999 Res B8 Ext Wall Steel-Framed, ! Name
  ,                                       ! Type
  Construction,                           ! Line Item Type
  90.1-1999 Res B8 Ext Wall Steel-Framed, ! Item Name
  ,                                       ! Object End Use Key
  ,                                       ! Quantity {dimensionless}
  91.749,                                 ! Material Cost {$}
  CostPerArea;                            ! Material Cost Units

OS:ComponentData,
  {c534c278-01d1-4555-9afc-f5e595e4d09f}, ! Handle
  Component Data 1,                       ! Name
  {e3625cd9-9b53-4713-b260-bbedcfb94324}, ! UUID
  {b3a3e743-aeea-479a-b6b2-c47f129e5711}, ! Version UUID
  1363981196,                             ! Creation Timestamp
  1363981196,                             ! Version Timestamp
  {199b5b69-d8e8-4e17-97d2-69794da40218}, ! Name of Object 1
  {6183e3ff-9f96-4e01-86d1-018e5de253ba}, ! Name of Object 2
  {eecec29d-8ac8-45f6-93c7-1ba98f7b5fef}, ! Name of Object 3
  {0abe0057-5cde-4d79-b20d-e0ff712d5a4d}, ! Name of Object 4
  {3aae0ad9-287f-4a0c-8986-e8790d9463ea}; ! Name of Object 5

