
OS:Version,
  {b0678085-1912-4a7b-b008-80b276198a02}, ! Handle
  0.9.3;                                  ! Version Identifier

OS:Material,
  {614ce454-74de-458b-82c4-ce69701bbfe7}, ! Handle
  1/2IN Gypsum,                           ! Name
  Smooth,                                 ! Roughness
  0.01271,                                ! Thickness {m}
  0.16,                                   ! Conductivity {W/m-K}
  784.9,                                  ! Density {kg/m3}
  830,                                    ! Specific Heat {J/kg-K}
  0.9,                                    ! Thermal Absorptance
  0.92,                                   ! Solar Absorptance
  0.92;                                   ! Visible Absorptance

OS:Material,
  {8f825f8e-f593-4a6c-a23f-7615719a325b}, ! Handle
  Wall Insulation [6],                    ! Name
  MediumRough,                            ! Roughness
  0.0678449,                              ! Thickness {m}
  0.045,                                  ! Conductivity {W/m-K}
  265,                                    ! Density {kg/m3}
  836.8,                                  ! Specific Heat {J/kg-K}
  0.9,                                    ! Thermal Absorptance
  0.7,                                    ! Solar Absorptance
  0.7;                                    ! Visible Absorptance

OS:Material:NoMass,
  {82d58652-1b86-4565-bf02-72d2ac6f6582}, ! Handle
  MAT-SHEATH,                             ! Name
  Rough,                                  ! Roughness
  0.36256,                                ! Thermal Resistance {m2-K/W}
  0.9,                                    ! Thermal Absorptance
  0.7,                                    ! Solar Absorptance
  0.7;                                    ! Visible Absorptance

OS:Construction,
  {948c77e5-fe8d-4d35-8409-e918df9c1008}, ! Handle
  90.1-1999 Res B8 Ext Wall Steel-Framed, ! Name
  ,                                       ! Surface Rendering Name
  {82d58652-1b86-4565-bf02-72d2ac6f6582}, ! Layer 1
  {8f825f8e-f593-4a6c-a23f-7615719a325b}, ! Layer 2
  {614ce454-74de-458b-82c4-ce69701bbfe7}; ! Layer 3

OS:ComponentCost:LineItem,
  {dba2710d-152b-4b39-a151-40926203ab9b}, ! Handle
  90.1-1999 Res B8 Ext Wall Steel-Framed, ! Name
  ,                                       ! Type
  Construction,                           ! Line Item Type
  90.1-1999 Res B8 Ext Wall Steel-Framed, ! Item Name
  ,                                       ! Object End Use Key
  ,                                       ! Quantity {dimensionless}
  91.749,                                 ! Material Cost {$}
  CostPerArea;                            ! Material Cost Units

