
OS:Version,
  {bb5efe87-6176-40f2-853e-5570956e65b4}, ! Handle
  0.9.3;                                  ! Version Identifier

OS:Material,
  {6539b1d5-71c6-40bf-9fe4-02a8a414ab87}, ! Handle
  8IN Concrete HW,                        ! Name
  MediumRough,                            ! Roughness
  0.2033,                                 ! Thickness {m}
  1.7296,                                 ! Conductivity {W/m-K}
  2243,                                   ! Density {kg/m3}
  837,                                    ! Specific Heat {J/kg-K}
  0.9,                                    ! Thermal Absorptance
  0.65,                                   ! Solar Absorptance
  0.65;                                   ! Visible Absorptance

OS:ComponentCost:LineItem,
  {e0dd4de5-977a-499b-a638-749730a49bed}, ! Handle
  90.1-2001 Nonres B13 Ext Wall Mass,     ! Name
  ,                                       ! Type
  Construction,                           ! Line Item Type
  90.1-2001 Nonres B13 Ext Wall Mass,     ! Item Name
  ,                                       ! Object End Use Key
  ,                                       ! Quantity {dimensionless}
  58.897,                                 ! Material Cost {$}
  CostPerArea;                            ! Material Cost Units

OS:Material,
  {c1683c0e-859b-4c5f-99bc-cda7759d32ef}, ! Handle
  1/2IN Gypsum,                           ! Name
  Smooth,                                 ! Roughness
  0.01271,                                ! Thickness {m}
  0.16,                                   ! Conductivity {W/m-K}
  784.9,                                  ! Density {kg/m3}
  830,                                    ! Specific Heat {J/kg-K}
  0.9,                                    ! Thermal Absorptance
  0.92,                                   ! Solar Absorptance
  0.92;                                   ! Visible Absorptance

OS:Material,
  {d5061844-6a88-4d1b-acda-b29ad85067f0}, ! Handle
  1IN Stucco,                             ! Name
  Smooth,                                 ! Roughness
  0.0253,                                 ! Thickness {m}
  0.6918,                                 ! Conductivity {W/m-K}
  1858,                                   ! Density {kg/m3}
  837,                                    ! Specific Heat {J/kg-K}
  0.9,                                    ! Thermal Absorptance
  0.92,                                   ! Solar Absorptance
  0.92;                                   ! Visible Absorptance

OS:Material,
  {46b1ef93-4925-4bf8-9a56-fe3b609e723c}, ! Handle
  Wall Insulation [4],                    ! Name
  MediumRough,                            ! Roughness
  0.0338606,                              ! Thickness {m}
  0.0432,                                 ! Conductivity {W/m-K}
  91,                                     ! Density {kg/m3}
  837,                                    ! Specific Heat {J/kg-K}
  0.9,                                    ! Thermal Absorptance
  0.5,                                    ! Solar Absorptance
  0.5;                                    ! Visible Absorptance

OS:Construction,
  {e8b0e507-cbd3-4156-8fcf-a0ffe0bf799a}, ! Handle
  90.1-2001 Nonres B13 Ext Wall Mass,     ! Name
  ,                                       ! Surface Rendering Name
  {d5061844-6a88-4d1b-acda-b29ad85067f0}, ! Layer 1
  {6539b1d5-71c6-40bf-9fe4-02a8a414ab87}, ! Layer 2
  {46b1ef93-4925-4bf8-9a56-fe3b609e723c}, ! Layer 3
  {c1683c0e-859b-4c5f-99bc-cda7759d32ef}; ! Layer 4

