
OS:Version,
  {a81072f0-0d6a-4bc9-ab1f-a0bfcdd69e80}, ! Handle
  0.9.3;                                  ! Version Identifier

OS:Construction,
  {3144a028-e767-4500-b68e-ca598ff66282}, ! Handle
  90.1-2001 Nonres B13 Ext Wall Mass,     ! Name
  ,                                       ! Surface Rendering Name
  {3f475f42-b304-48b9-8eeb-bbf29dda188d}, ! Layer 1
  {807feb41-c7ce-4d67-a8ee-2bda351ca20f}, ! Layer 2
  {438c68d7-ba4f-4e51-b03e-41b2e02b8e59}, ! Layer 3
  {26a20796-7b15-426e-8293-7f00549ab62c}; ! Layer 4

OS:Material,
  {3f475f42-b304-48b9-8eeb-bbf29dda188d}, ! Handle
  1IN Stucco,                             ! Name
  Smooth,                                 ! Roughness
  0.0253,                                 ! Thickness {m}
  0.6918,                                 ! Conductivity {W/m-K}
  1858,                                   ! Density {kg/m3}
  837,                                    ! Specific Heat {J/kg-K}
  0.9,                                    ! Thermal Absorptance
  0.92,                                   ! Solar Absorptance
  0.92;                                   ! Visible Absorptance

OS:Material,
  {807feb41-c7ce-4d67-a8ee-2bda351ca20f}, ! Handle
  8IN Concrete HW,                        ! Name
  MediumRough,                            ! Roughness
  0.2033,                                 ! Thickness {m}
  1.7296,                                 ! Conductivity {W/m-K}
  2243,                                   ! Density {kg/m3}
  837,                                    ! Specific Heat {J/kg-K}
  0.9,                                    ! Thermal Absorptance
  0.65,                                   ! Solar Absorptance
  0.65;                                   ! Visible Absorptance

OS:Material,
  {438c68d7-ba4f-4e51-b03e-41b2e02b8e59}, ! Handle
  Wall Insulation [4],                    ! Name
  MediumRough,                            ! Roughness
  0.0338606,                              ! Thickness {m}
  0.0432,                                 ! Conductivity {W/m-K}
  91,                                     ! Density {kg/m3}
  837,                                    ! Specific Heat {J/kg-K}
  0.9,                                    ! Thermal Absorptance
  0.5,                                    ! Solar Absorptance
  0.5;                                    ! Visible Absorptance

OS:Material,
  {26a20796-7b15-426e-8293-7f00549ab62c}, ! Handle
  1/2IN Gypsum,                           ! Name
  Smooth,                                 ! Roughness
  0.01271,                                ! Thickness {m}
  0.16,                                   ! Conductivity {W/m-K}
  784.9,                                  ! Density {kg/m3}
  830,                                    ! Specific Heat {J/kg-K}
  0.9,                                    ! Thermal Absorptance
  0.92,                                   ! Solar Absorptance
  0.92;                                   ! Visible Absorptance

OS:ComponentCost:LineItem,
  {b60cc00d-2d67-4b8b-ba21-2449f73eeac9}, ! Handle
  90.1-2001 Nonres B13 Ext Wall Mass,     ! Name
  ,                                       ! Type
  Construction,                           ! Line Item Type
  90.1-2001 Nonres B13 Ext Wall Mass,     ! Item Name
  ,                                       ! Object End Use Key
  ,                                       ! Quantity {dimensionless}
  58.897,                                 ! Material Cost {$}
  CostPerArea;                            ! Material Cost Units

OS:ComponentData,
  {c9e6276e-dd0b-4378-bb9c-30316324a619}, ! Handle
  Component Data 1,                       ! Name
  {7b98d84c-66f4-44d9-9a00-adb75a597728}, ! UUID
  {6251e971-177a-4175-8855-bdb1217eb04f}, ! Version UUID
  1363981356,                             ! Creation Timestamp
  1363981356,                             ! Version Timestamp
  {3144a028-e767-4500-b68e-ca598ff66282}, ! Name of Object 1
  {3f475f42-b304-48b9-8eeb-bbf29dda188d}, ! Name of Object 2
  {807feb41-c7ce-4d67-a8ee-2bda351ca20f}, ! Name of Object 3
  {438c68d7-ba4f-4e51-b03e-41b2e02b8e59}, ! Name of Object 4
  {26a20796-7b15-426e-8293-7f00549ab62c}, ! Name of Object 5
  {b60cc00d-2d67-4b8b-ba21-2449f73eeac9}; ! Name of Object 6

