
OS:Version,
  {ef6f4aa9-a932-447c-9c2b-a9af96d00edb}, ! Handle
  0.9.3;                                  ! Version Identifier

OS:ComponentCost:LineItem,
  {1a53f7a5-a8ff-480a-ab2e-66d18e24113d}, ! Handle
  90.1-1999 Res B14 Roof Attic and Other, ! Name
  ,                                       ! Type
  Construction,                           ! Line Item Type
  90.1-1999 Res B14 Roof Attic and Other, ! Item Name
  ,                                       ! Object End Use Key
  ,                                       ! Quantity {dimensionless}
  33.39,                                  ! Material Cost {$}
  CostPerArea;                            ! Material Cost Units

OS:Material,
  {1b83315d-8458-40ad-af4c-c0fd1f488582}, ! Handle
  1IN Wood Decking,                       ! Name
  MediumSmooth,                           ! Roughness
  0.0254,                                 ! Thickness {m}
  0.1211,                                 ! Conductivity {W/m-K}
  593,                                    ! Density {kg/m3}
  2510,                                   ! Specific Heat {J/kg-K}
  0.9,                                    ! Thermal Absorptance
  0.78,                                   ! Solar Absorptance
  0.78;                                   ! Visible Absorptance

OS:Construction,
  {34948e97-3751-450c-8068-ae654eb8e7c6}, ! Handle
  90.1-1999 Res B14 Roof Attic and Other, ! Name
  ,                                       ! Surface Rendering Name
  {4a81dff6-b6c5-480f-bf0d-9fd960c955c8}, ! Layer 1
  {1b83315d-8458-40ad-af4c-c0fd1f488582}, ! Layer 2
  {74fbda41-67f1-4130-8b5d-5b0bce803ed0}, ! Layer 3
  {bbfa875d-720b-4b8c-b901-5f244b115030}; ! Layer 4

OS:Material,
  {4a81dff6-b6c5-480f-bf0d-9fd960c955c8}, ! Handle
  Wood Shingles,                          ! Name
  VeryRough,                              ! Roughness
  0.0178,                                 ! Thickness {m}
  0.115,                                  ! Conductivity {W/m-K}
  513,                                    ! Density {kg/m3}
  1255,                                   ! Specific Heat {J/kg-K}
  0.9,                                    ! Thermal Absorptance
  0.78,                                   ! Solar Absorptance
  0.78;                                   ! Visible Absorptance

OS:Material,
  {74fbda41-67f1-4130-8b5d-5b0bce803ed0}, ! Handle
  Roof Insulation [2],                    ! Name
  MediumRough,                            ! Roughness
  0.221604,                               ! Thickness {m}
  0.049,                                  ! Conductivity {W/m-K}
  265,                                    ! Density {kg/m3}
  836.8,                                  ! Specific Heat {J/kg-K}
  0.9,                                    ! Thermal Absorptance
  0.7,                                    ! Solar Absorptance
  0.7;                                    ! Visible Absorptance

OS:Material,
  {bbfa875d-720b-4b8c-b901-5f244b115030}, ! Handle
  1/2IN Gypsum,                           ! Name
  Smooth,                                 ! Roughness
  0.01271,                                ! Thickness {m}
  0.16,                                   ! Conductivity {W/m-K}
  784.9,                                  ! Density {kg/m3}
  830,                                    ! Specific Heat {J/kg-K}
  0.9,                                    ! Thermal Absorptance
  0.92,                                   ! Solar Absorptance
  0.92;                                   ! Visible Absorptance

