
OS:Version,
  {f0bd7c5b-2109-485f-b351-0cd8b13e5a29}, ! Handle
  0.9.3;                                  ! Version Identifier

OS:Construction,
  {33216087-8397-4047-8a3d-9fb7ed176e9e}, ! Handle
  90.1-1999 Nonres B10 Roof IEAD,         ! Name
  ,                                       ! Surface Rendering Name
  {7b07258e-ede4-4473-8944-92fd9b334bba}, ! Layer 1
  {3f6d4503-7e6d-4b85-9196-ea32c4588778}, ! Layer 2
  {645ab373-23f0-4260-829f-75744622199f}; ! Layer 3

OS:Material,
  {7b07258e-ede4-4473-8944-92fd9b334bba}, ! Handle
  Roof Membrane,                          ! Name
  VeryRough,                              ! Roughness
  0.0095,                                 ! Thickness {m}
  0.16,                                   ! Conductivity {W/m-K}
  1121.29,                                ! Density {kg/m3}
  1460,                                   ! Specific Heat {J/kg-K}
  0.9,                                    ! Thermal Absorptance
  0.7,                                    ! Solar Absorptance
  0.7;                                    ! Visible Absorptance

OS:Material,
  {3f6d4503-7e6d-4b85-9196-ea32c4588778}, ! Handle
  Roof Insulation,                        ! Name
  MediumRough,                            ! Roughness
  0.124958,                               ! Thickness {m}
  0.049,                                  ! Conductivity {W/m-K}
  265,                                    ! Density {kg/m3}
  836.8,                                  ! Specific Heat {J/kg-K}
  0.9,                                    ! Thermal Absorptance
  0.7,                                    ! Solar Absorptance
  0.7;                                    ! Visible Absorptance

OS:Material,
  {645ab373-23f0-4260-829f-75744622199f}, ! Handle
  Metal Decking,                          ! Name
  MediumSmooth,                           ! Roughness
  0.001524,                               ! Thickness {m}
  45.006,                                 ! Conductivity {W/m-K}
  7680,                                   ! Density {kg/m3}
  418.4,                                  ! Specific Heat {J/kg-K}
  0.9,                                    ! Thermal Absorptance
  0.7,                                    ! Solar Absorptance
  0.3;                                    ! Visible Absorptance

OS:ComponentCost:LineItem,
  {eeee8875-3198-43ae-8794-5249052e7f7b}, ! Handle
  90.1-1999 Nonres B10 Roof IEAD,         ! Name
  ,                                       ! Type
  Construction,                           ! Line Item Type
  90.1-1999 Nonres B10 Roof IEAD,         ! Item Name
  ,                                       ! Object End Use Key
  ,                                       ! Quantity {dimensionless}
  49.208,                                 ! Material Cost {$}
  CostPerArea;                            ! Material Cost Units

OS:ComponentData,
  {aac1b6e7-a6f6-4d78-a1ee-ccc3be7d39b6}, ! Handle
  Component Data 1,                       ! Name
  {48a454fa-9f2c-42c6-9aad-037f46223c2b}, ! UUID
  {95a4636d-b489-40b8-9539-5482ec612ef8}, ! Version UUID
  1363981080,                             ! Creation Timestamp
  1363981080,                             ! Version Timestamp
  {33216087-8397-4047-8a3d-9fb7ed176e9e}, ! Name of Object 1
  {7b07258e-ede4-4473-8944-92fd9b334bba}, ! Name of Object 2
  {3f6d4503-7e6d-4b85-9196-ea32c4588778}, ! Name of Object 3
  {645ab373-23f0-4260-829f-75744622199f}, ! Name of Object 4
  {eeee8875-3198-43ae-8794-5249052e7f7b}; ! Name of Object 5

