
OS:Version,
  {84fc9636-a74b-4e5c-bfa5-41be6aa37197}, ! Handle
  0.9.3;                                  ! Version Identifier

OS:ComponentCost:LineItem,
  {0a476b4b-bbc9-4e0c-91ef-b52ab3469486}, ! Handle
  189.1-2009 Nonres 5B Attic Floor,       ! Name
  ,                                       ! Type
  Construction,                           ! Line Item Type
  189.1-2009 Nonres 5B Attic Floor,       ! Item Name
  ,                                       ! Object End Use Key
  ,                                       ! Quantity {dimensionless}
  37.058,                                 ! Material Cost {$}
  CostPerArea;                            ! Material Cost Units

OS:Construction,
  {b70ff18b-3255-4541-bb75-33adf34f009a}, ! Handle
  189.1-2009 Nonres 5B Attic Floor,       ! Name
  ,                                       ! Surface Rendering Name
  {f540b2d3-2007-4644-b207-96d1cec99de4}, ! Layer 1
  {03ed88d7-e505-47ae-b2c9-96f094227310}, ! Layer 2
  {54405357-d09f-475c-a951-1a127a360006}; ! Layer 3

OS:Material,
  {f540b2d3-2007-4644-b207-96d1cec99de4}, ! Handle
  1/2IN Gypsum Top,                       ! Name
  Smooth,                                 ! Roughness
  0.01271,                                ! Thickness {m}
  0.16,                                   ! Conductivity {W/m-K}
  784.9,                                  ! Density {kg/m3}
  830,                                    ! Specific Heat {J/kg-K}
  0.9,                                    ! Thermal Absorptance
  0.92,                                   ! Solar Absorptance
  0.92;                                   ! Visible Absorptance

OS:Material,
  {03ed88d7-e505-47ae-b2c9-96f094227310}, ! Handle
  AtticFloor Insulation [4],              ! Name
  MediumRough,                            ! Roughness
  0.392234,                               ! Thickness {m}
  0.049,                                  ! Conductivity {W/m-K}
  265,                                    ! Density {kg/m3}
  836.8,                                  ! Specific Heat {J/kg-K}
  0.9,                                    ! Thermal Absorptance
  0.7,                                    ! Solar Absorptance
  0.7;                                    ! Visible Absorptance

OS:Material,
  {54405357-d09f-475c-a951-1a127a360006}, ! Handle
  1/2IN Gypsum Bottom,                    ! Name
  Smooth,                                 ! Roughness
  0.01271,                                ! Thickness {m}
  0.16,                                   ! Conductivity {W/m-K}
  784.9,                                  ! Density {kg/m3}
  830,                                    ! Specific Heat {J/kg-K}
  0.9,                                    ! Thermal Absorptance
  0.92,                                   ! Solar Absorptance
  0.92;                                   ! Visible Absorptance

