
OS:Version,
  {3acdb1a0-1961-4d27-b1bd-b5fb813c213a}, ! Handle
  0.9.3;                                  ! Version Identifier

OS:ComponentCost:LineItem,
  {b444d6b4-d523-4a00-a94d-74215481961e}, ! Handle
  Title 24-2008 Nonres 16 Ext Slab Unheated - 8in Slab with Carpet, ! Name
  ,                                       ! Type
  Construction,                           ! Line Item Type
  Title 24-2008 Nonres 16 Ext Slab Unheated - 8in Slab with Carpet, ! Item Name
  ,                                       ! Object End Use Key
  ,                                       ! Quantity {dimensionless}
  45.52,                                  ! Material Cost {$}
  CostPerArea;                            ! Material Cost Units

OS:Material,
  {d82ccf7e-5424-4ceb-8836-009081ced3f8}, ! Handle
  MAT-CC05 8 HW CONCRETE,                 ! Name
  Rough,                                  ! Roughness
  0.20321,                                ! Thickness {m}
  1.311,                                  ! Conductivity {W/m-K}
  2240,                                   ! Density {kg/m3}
  836.8,                                  ! Specific Heat {J/kg-K}
  0.9,                                    ! Thermal Absorptance
  0.7,                                    ! Solar Absorptance
  0.7;                                    ! Visible Absorptance

OS:Construction,
  {afa5f21b-106b-4acd-91a3-b736a08a079c}, ! Handle
  Title 24-2008 Nonres 16 Ext Slab Unheated - 8in Slab with Carpet, ! Name
  ,                                       ! Surface Rendering Name
  {d82ccf7e-5424-4ceb-8836-009081ced3f8}, ! Layer 1
  {3d9d246c-60df-4dce-998a-cdc863dcc08f}; ! Layer 2

OS:Material:NoMass,
  {3d9d246c-60df-4dce-998a-cdc863dcc08f}, ! Handle
  CP02 CARPET PAD,                        ! Name
  VeryRough,                              ! Roughness
  0.21648,                                ! Thermal Resistance {m2-K/W}
  0.9,                                    ! Thermal Absorptance
  0.7,                                    ! Solar Absorptance
  0.8;                                    ! Visible Absorptance

