
OS:Version,
  {c86f973f-44ee-4d59-8906-053ee89b9410}, !- Handle
  1.1.0;                                  !- Version Identifier

OS:Construction,
  {19463344-e77e-48f3-a2eb-fc76c97c3213}, !- Handle
  Dbl Elec Ref Bleached 6mm/6mm Air,      !- Name
  ,                                       !- Surface Rendering Name
  {0ac7f13e-4d6a-42f7-ac69-1d972710cd36}, !- Layer 1
  {f3852e46-1022-4dfe-986e-905aa2dfc1fa}, !- Layer 2
  {14afb477-c20f-45fc-b3c7-8d22f3e11b8a}; !- Layer 3

OS:WindowMaterial:Glazing,
  {0ac7f13e-4d6a-42f7-ac69-1d972710cd36}, !- Handle
  ECREF-2 BLEACHED 6MM,                   !- Name
  SpectralAverage,                        !- Optical Data Type
  ,                                       !- Window Glass Spectral Data Set Name
  0.006,                                  !- Thickness {m}
  0.694,                                  !- Solar Transmittance at Normal Incidence
  0.168,                                  !- Front Side Solar Reflectance at Normal Incidence
  0.168,                                  !- Back Side Solar Reflectance at Normal Incidence
  0.818,                                  !- Visible Transmittance at Normal Incidence
  0.11,                                   !- Front Side Visible Reflectance at Normal Incidence
  0.11,                                   !- Back Side Visible Reflectance at Normal Incidence
  0,                                      !- Infrared Transmittance at Normal Incidence
  0.84,                                   !- Front Side Infrared Hemispherical Emissivity
  0.1,                                    !- Back Side Infrared Hemispherical Emissivity
  0.9;                                    !- Conductivity {W/m-K}

OS:WindowMaterial:Gas,
  {f3852e46-1022-4dfe-986e-905aa2dfc1fa}, !- Handle
  AIR 6MM,                                !- Name
  Air,                                    !- Gas Type
  0.0063;                                 !- Thickness {m}

OS:WindowMaterial:Glazing,
  {14afb477-c20f-45fc-b3c7-8d22f3e11b8a}, !- Handle
  CLEAR 6MM,                              !- Name
  SpectralAverage,                        !- Optical Data Type
  ,                                       !- Window Glass Spectral Data Set Name
  0.006,                                  !- Thickness {m}
  0.775,                                  !- Solar Transmittance at Normal Incidence
  0.071,                                  !- Front Side Solar Reflectance at Normal Incidence
  0.071,                                  !- Back Side Solar Reflectance at Normal Incidence
  0.881,                                  !- Visible Transmittance at Normal Incidence
  0.08,                                   !- Front Side Visible Reflectance at Normal Incidence
  0.08,                                   !- Back Side Visible Reflectance at Normal Incidence
  0,                                      !- Infrared Transmittance at Normal Incidence
  0.84,                                   !- Front Side Infrared Hemispherical Emissivity
  0.84,                                   !- Back Side Infrared Hemispherical Emissivity
  0.9;                                    !- Conductivity {W/m-K}

