
OS:Version,
  {56c19730-680f-4222-82b4-df655294efa2}, ! Handle
  0.9.3;                                  ! Version Identifier

OS:Construction,
  {1c15e2d0-afdc-4cdd-863a-7245d73041fa}, ! Handle
  90.1 Windows Window Fixed 2470 Brk-ClrSue-Ins-ClrSue, ! Name
  ,                                       ! Surface Rendering Name
  {9780d885-cd9b-4367-981e-5199d9366e7c}; ! Layer 1

OS:WindowMaterial:Glazing,
  {9780d885-cd9b-4367-981e-5199d9366e7c}, ! Handle
  Theoretical Glass [615],                ! Name
  SpectralAverage,                        ! Optical Data Type
  ,                                       ! Window Glass Spectral Data Set Name
  0.003,                                  ! Thickness {m}
  0.354957,                               ! Solar Transmittance at Normal Incidence
  0.595043,                               ! Front Side Solar Reflectance at Normal Incidence
  0.595043,                               ! Back Side Solar Reflectance at Normal Incidence
  0.549983,                               ! Visible Transmittance at Normal Incidence
  0.400017,                               ! Front Side Visible Reflectance at Normal Incidence
  0.400017,                               ! Back Side Visible Reflectance at Normal Incidence
  0,                                      ! Infrared Transmittance at Normal Incidence
  0.9,                                    ! Front Side Infrared Hemispherical Emissivity
  0.9,                                    ! Back Side Infrared Hemispherical Emissivity
  0.0111874;                              ! Conductivity {W/m-K}

OS:ComponentCost:LineItem,
  {edc9e6e2-dbbb-48bf-9b97-8ae01d340b98}, ! Handle
  90.1 Windows Window Fixed 2470 Brk-ClrSue-Ins-ClrSue, ! Name
  ,                                       ! Type
  Construction,                           ! Line Item Type
  90.1 Windows Window Fixed 2470 Brk-ClrSue-Ins-ClrSue, ! Item Name
  ,                                       ! Object End Use Key
  ,                                       ! Quantity {dimensionless}
  0,                                      ! Material Cost {$}
  CostPerArea;                            ! Material Cost Units

