
OS:Version,
  {b198ce57-72dd-48e9-a874-a3fa960a87e8}, ! Handle
  0.9.3;                                  ! Version Identifier

OS:Construction,
  {760b06a2-714f-4522-80a6-6957dc30cb76}, ! Handle
  90.1 Windows Window Fixed 2470 Brk-ClrSue-Ins-ClrSue, ! Name
  ,                                       ! Surface Rendering Name
  {4a799e15-1da7-4454-81c9-1c133e955aa6}; ! Layer 1

OS:WindowMaterial:Glazing,
  {4a799e15-1da7-4454-81c9-1c133e955aa6}, ! Handle
  Theoretical Glass [615],                ! Name
  SpectralAverage,                        ! Optical Data Type
  ,                                       ! Window Glass Spectral Data Set Name
  0.003,                                  ! Thickness {m}
  0.354957,                               ! Solar Transmittance at Normal Incidence
  0.595043,                               ! Front Side Solar Reflectance at Normal Incidence
  0.595043,                               ! Back Side Solar Reflectance at Normal Incidence
  0.549983,                               ! Visible Transmittance at Normal Incidence
  0.400017,                               ! Front Side Visible Reflectance at Normal Incidence
  0.400017,                               ! Back Side Visible Reflectance at Normal Incidence
  0,                                      ! Infrared Transmittance at Normal Incidence
  0.9,                                    ! Front Side Infrared Hemispherical Emissivity
  0.9,                                    ! Back Side Infrared Hemispherical Emissivity
  0.0111874;                              ! Conductivity {W/m-K}

OS:ComponentCost:LineItem,
  {de64f5f0-be20-4046-a4de-369d00e713c9}, ! Handle
  90.1 Windows Window Fixed 2470 Brk-ClrSue-Ins-ClrSue, ! Name
  ,                                       ! Type
  Construction,                           ! Line Item Type
  90.1 Windows Window Fixed 2470 Brk-ClrSue-Ins-ClrSue, ! Item Name
  ,                                       ! Object End Use Key
  ,                                       ! Quantity {dimensionless}
  0,                                      ! Material Cost {$}
  CostPerArea;                            ! Material Cost Units

OS:ComponentData,
  {afbe04f7-afd2-443e-8114-c3c41616f890}, ! Handle
  Component Data 1,                       ! Name
  {d392521b-3085-49c3-8823-1d94eb6044be}, ! UUID
  {282c1075-faea-405d-ae5a-2bce15b61439}, ! Version UUID
  1363981033,                             ! Creation Timestamp
  1363981033,                             ! Version Timestamp
  {760b06a2-714f-4522-80a6-6957dc30cb76}, ! Name of Object 1
  {4a799e15-1da7-4454-81c9-1c133e955aa6}, ! Name of Object 2
  {de64f5f0-be20-4046-a4de-369d00e713c9}; ! Name of Object 3

