
OS:Version,
  {39748161-866b-470b-8509-b88028f05b2c}, ! Handle
  0.9.3;                                  ! Version Identifier

OS:Construction,
  {2794c5ff-249d-4244-a966-cd47962c78d7}, ! Handle
  90.1-2001 Nonres B16 Roof IEAD,         ! Name
  ,                                       ! Surface Rendering Name
  {fdbd4435-047b-48a0-9ca6-6caaa61422f8}, ! Layer 1
  {1268e5a2-2566-4b10-a44c-01cec82a2c4f}, ! Layer 2
  {b9edadbf-0892-47b3-a0d9-7eedbbaae584}; ! Layer 3

OS:Material,
  {fdbd4435-047b-48a0-9ca6-6caaa61422f8}, ! Handle
  Roof Membrane,                          ! Name
  VeryRough,                              ! Roughness
  0.0095,                                 ! Thickness {m}
  0.16,                                   ! Conductivity {W/m-K}
  1121.29,                                ! Density {kg/m3}
  1460,                                   ! Specific Heat {J/kg-K}
  0.9,                                    ! Thermal Absorptance
  0.7,                                    ! Solar Absorptance
  0.7;                                    ! Visible Absorptance

OS:Material,
  {1268e5a2-2566-4b10-a44c-01cec82a2c4f}, ! Handle
  Roof Insulation,                        ! Name
  MediumRough,                            ! Roughness
  0.124958,                               ! Thickness {m}
  0.049,                                  ! Conductivity {W/m-K}
  265,                                    ! Density {kg/m3}
  836.8,                                  ! Specific Heat {J/kg-K}
  0.9,                                    ! Thermal Absorptance
  0.7,                                    ! Solar Absorptance
  0.7;                                    ! Visible Absorptance

OS:Material,
  {b9edadbf-0892-47b3-a0d9-7eedbbaae584}, ! Handle
  Metal Decking,                          ! Name
  MediumSmooth,                           ! Roughness
  0.001524,                               ! Thickness {m}
  45.006,                                 ! Conductivity {W/m-K}
  7680,                                   ! Density {kg/m3}
  418.4,                                  ! Specific Heat {J/kg-K}
  0.9,                                    ! Thermal Absorptance
  0.7,                                    ! Solar Absorptance
  0.3;                                    ! Visible Absorptance

OS:ComponentCost:LineItem,
  {d535e6f7-0930-4148-8eec-2f21dba333c7}, ! Handle
  90.1-2001 Nonres B16 Roof IEAD,         ! Name
  ,                                       ! Type
  Construction,                           ! Line Item Type
  90.1-2001 Nonres B16 Roof IEAD,         ! Item Name
  ,                                       ! Object End Use Key
  ,                                       ! Quantity {dimensionless}
  49.208,                                 ! Material Cost {$}
  CostPerArea;                            ! Material Cost Units

OS:ComponentData,
  {a1a154ed-e696-46e8-9013-3b37305cbc10}, ! Handle
  Component Data 1,                       ! Name
  {3c7b172b-228f-4ff1-ae4e-d7fd752100ed}, ! UUID
  {2963483b-3536-4e9e-8aea-07f1b2b1514c}, ! Version UUID
  1363981373,                             ! Creation Timestamp
  1363981373,                             ! Version Timestamp
  {2794c5ff-249d-4244-a966-cd47962c78d7}, ! Name of Object 1
  {fdbd4435-047b-48a0-9ca6-6caaa61422f8}, ! Name of Object 2
  {1268e5a2-2566-4b10-a44c-01cec82a2c4f}, ! Name of Object 3
  {b9edadbf-0892-47b3-a0d9-7eedbbaae584}, ! Name of Object 4
  {d535e6f7-0930-4148-8eec-2f21dba333c7}; ! Name of Object 5

