
OS:Version,
  {b7b619c8-9adf-4b36-bb3a-e9bdcafa8750}, ! Handle
  0.9.3;                                  ! Version Identifier

OS:ComponentCost:LineItem,
  {4dcae305-8721-43f1-ac7d-775991a0b8df}, ! Handle
  90.1-2001 Res B15 Roof Metal Building,  ! Name
  ,                                       ! Type
  Construction,                           ! Line Item Type
  90.1-2001 Res B15 Roof Metal Building,  ! Item Name
  ,                                       ! Object End Use Key
  ,                                       ! Quantity {dimensionless}
  38.206,                                 ! Material Cost {$}
  CostPerArea;                            ! Material Cost Units

OS:Construction,
  {581141c7-6143-470d-9a12-327c7d73b1c2}, ! Handle
  90.1-2001 Res B15 Roof Metal Building,  ! Name
  ,                                       ! Surface Rendering Name
  {c6addcd5-bcfe-47d9-9423-5f7f0b786683}, ! Layer 1
  {0a89c0c6-3694-4a8a-96d9-f79ba6ce4cf6}; ! Layer 2

OS:Material,
  {c6addcd5-bcfe-47d9-9423-5f7f0b786683}, ! Handle
  Metal Roofing,                          ! Name
  MediumSmooth,                           ! Roughness
  0.001524,                               ! Thickness {m}
  45.006,                                 ! Conductivity {W/m-K}
  7680,                                   ! Density {kg/m3}
  418.4,                                  ! Specific Heat {J/kg-K}
  0.9,                                    ! Thermal Absorptance
  0.7,                                    ! Solar Absorptance
  0.3;                                    ! Visible Absorptance

OS:Material,
  {0a89c0c6-3694-4a8a-96d9-f79ba6ce4cf6}, ! Handle
  Roof Insulation [1],                    ! Name
  MediumRough,                            ! Roughness
  0.123533,                               ! Thickness {m}
  0.049,                                  ! Conductivity {W/m-K}
  265,                                    ! Density {kg/m3}
  836.8,                                  ! Specific Heat {J/kg-K}
  0.9,                                    ! Thermal Absorptance
  0.7,                                    ! Solar Absorptance
  0.7;                                    ! Visible Absorptance

