
OS:Version,
  {2a503d82-68fb-4af8-aae4-87d02e488dd0}, ! Handle
  0.9.3;                                  ! Version Identifier

OS:Material,
  {61662b32-7dba-46c9-877c-f72b8bf9c5f1}, ! Handle
  1IN Wood Decking,                       ! Name
  MediumSmooth,                           ! Roughness
  0.0254,                                 ! Thickness {m}
  0.1211,                                 ! Conductivity {W/m-K}
  593,                                    ! Density {kg/m3}
  2510,                                   ! Specific Heat {J/kg-K}
  0.9,                                    ! Thermal Absorptance
  0.78,                                   ! Solar Absorptance
  0.78;                                   ! Visible Absorptance

OS:Construction,
  {484a44ab-546c-4845-a4c7-c159ca136232}, ! Handle
  90.1-2004 Res 1A Roof Attic and Other,  ! Name
  ,                                       ! Surface Rendering Name
  {2861cea7-9665-4fa0-b5b6-66e9d736b2a0}, ! Layer 1
  {61662b32-7dba-46c9-877c-f72b8bf9c5f1}, ! Layer 2
  {83a87089-4813-48fb-b4c2-57ae9fb0cf2d}, ! Layer 3
  {ab1d7876-693e-45db-befd-b2b29482eb7a}; ! Layer 4

OS:Material,
  {2861cea7-9665-4fa0-b5b6-66e9d736b2a0}, ! Handle
  Wood Shingles,                          ! Name
  VeryRough,                              ! Roughness
  0.0178,                                 ! Thickness {m}
  0.115,                                  ! Conductivity {W/m-K}
  513,                                    ! Density {kg/m3}
  1255,                                   ! Specific Heat {J/kg-K}
  0.9,                                    ! Thermal Absorptance
  0.78,                                   ! Solar Absorptance
  0.78;                                   ! Visible Absorptance

OS:Material,
  {83a87089-4813-48fb-b4c2-57ae9fb0cf2d}, ! Handle
  Roof Insulation [5],                    ! Name
  MediumRough,                            ! Roughness
  0.286906,                               ! Thickness {m}
  0.049,                                  ! Conductivity {W/m-K}
  265,                                    ! Density {kg/m3}
  836.8,                                  ! Specific Heat {J/kg-K}
  0.9,                                    ! Thermal Absorptance
  0.7,                                    ! Solar Absorptance
  0.7;                                    ! Visible Absorptance

OS:Material,
  {ab1d7876-693e-45db-befd-b2b29482eb7a}, ! Handle
  1/2IN Gypsum,                           ! Name
  Smooth,                                 ! Roughness
  0.01271,                                ! Thickness {m}
  0.16,                                   ! Conductivity {W/m-K}
  784.9,                                  ! Density {kg/m3}
  830,                                    ! Specific Heat {J/kg-K}
  0.9,                                    ! Thermal Absorptance
  0.92,                                   ! Solar Absorptance
  0.92;                                   ! Visible Absorptance

OS:ComponentCost:LineItem,
  {cb766f39-8d6d-4d30-b90c-8d47ab06a80f}, ! Handle
  90.1-2004 Res 1A Roof Attic and Other,  ! Name
  ,                                       ! Type
  Construction,                           ! Line Item Type
  90.1-2004 Res 1A Roof Attic and Other,  ! Item Name
  ,                                       ! Object End Use Key
  ,                                       ! Quantity {dimensionless}
  34.757,                                 ! Material Cost {$}
  CostPerArea;                            ! Material Cost Units

