
OS:Version,
  {75158e68-992f-455b-a448-5597b9eb8122}, ! Handle
  0.9.3;                                  ! Version Identifier

OS:WindowMaterial:Glazing,
  {5dce2aaa-7b13-43bc-839c-bcdc4dc27af3}, ! Handle
  Theoretical Glass [260],                ! Name
  SpectralAverage,                        ! Optical Data Type
  ,                                       ! Window Glass Spectral Data Set Name
  0.003,                                  ! Thickness {m}
  0.618894,                               ! Solar Transmittance at Normal Incidence
  0.331106,                               ! Front Side Solar Reflectance at Normal Incidence
  0.331106,                               ! Back Side Solar Reflectance at Normal Incidence
  0.639644,                               ! Visible Transmittance at Normal Incidence
  0.310356,                               ! Front Side Visible Reflectance at Normal Incidence
  0.310356,                               ! Back Side Visible Reflectance at Normal Incidence
  0,                                      ! Infrared Transmittance at Normal Incidence
  0.9,                                    ! Front Side Infrared Hemispherical Emissivity
  0.9,                                    ! Back Side Infrared Hemispherical Emissivity
  0.00892277;                             ! Conductivity {W/m-K}

OS:ComponentCost:LineItem,
  {956b3fdc-a195-4e41-a53c-1fa7c4f4a386}, ! Handle
  AEDG K12 Nonres 8A Window Fixed,        ! Name
  ,                                       ! Type
  Construction,                           ! Line Item Type
  AEDG K12 Nonres 8A Window Fixed,        ! Item Name
  ,                                       ! Object End Use Key
  ,                                       ! Quantity {dimensionless}
  572.599,                                ! Material Cost {$}
  CostPerArea;                            ! Material Cost Units

OS:Construction,
  {cdb06845-841e-453b-aca8-fbbde4ddd033}, ! Handle
  AEDG K12 Nonres 8A Window Fixed,        ! Name
  ,                                       ! Surface Rendering Name
  {5dce2aaa-7b13-43bc-839c-bcdc4dc27af3}; ! Layer 1

