
OS:Version,
  {b4e98251-e958-4ae4-8b50-18f10824fb8c}, ! Handle
  0.9.3;                                  ! Version Identifier

OS:ComponentCost:LineItem,
  {a979477f-3e81-42b4-883c-b923f7b6ac7e}, ! Handle
  90.1 Windows Window Fixed 2416 Brk-HptMpr-Ins-Clr, ! Name
  ,                                       ! Type
  Construction,                           ! Line Item Type
  90.1 Windows Window Fixed 2416 Brk-HptMpr-Ins-Clr, ! Item Name
  ,                                       ! Object End Use Key
  ,                                       ! Quantity {dimensionless}
  0,                                      ! Material Cost {$}
  CostPerArea;                            ! Material Cost Units

OS:Construction,
  {32ce34f1-98ba-4edf-aa81-fab7c3c6ad92}, ! Handle
  90.1 Windows Window Fixed 2416 Brk-HptMpr-Ins-Clr, ! Name
  ,                                       ! Surface Rendering Name
  {bd73d6f3-ce81-4a82-abca-f6f3e28ee7cb}; ! Layer 1

OS:WindowMaterial:Glazing,
  {bd73d6f3-ce81-4a82-abca-f6f3e28ee7cb}, ! Handle
  Theoretical Glass [474],                ! Name
  SpectralAverage,                        ! Optical Data Type
  ,                                       ! Window Glass Spectral Data Set Name
  0.003,                                  ! Thickness {m}
  0.273738,                               ! Solar Transmittance at Normal Incidence
  0.676262,                               ! Front Side Solar Reflectance at Normal Incidence
  0.676262,                               ! Back Side Solar Reflectance at Normal Incidence
  0.34081,                                ! Visible Transmittance at Normal Incidence
  0.60919,                                ! Front Side Visible Reflectance at Normal Incidence
  0.60919,                                ! Back Side Visible Reflectance at Normal Incidence
  0,                                      ! Infrared Transmittance at Normal Incidence
  0.9,                                    ! Front Side Infrared Hemispherical Emissivity
  0.9,                                    ! Back Side Infrared Hemispherical Emissivity
  0.0213046;                              ! Conductivity {W/m-K}

