
OS:Version,
  {b88af50c-0113-4ceb-939f-3800188a98b8}, ! Handle
  0.9.3;                                  ! Version Identifier

OS:Construction,
  {e08aa072-0fdd-4325-b62a-6780caec689d}, ! Handle
  90.1 Windows Window Fixed 2416 Brk-HptMpr-Ins-Clr, ! Name
  ,                                       ! Surface Rendering Name
  {66bcf408-574b-4d63-9ccf-64e73b2d488a}; ! Layer 1

OS:WindowMaterial:Glazing,
  {66bcf408-574b-4d63-9ccf-64e73b2d488a}, ! Handle
  Theoretical Glass [474],                ! Name
  SpectralAverage,                        ! Optical Data Type
  ,                                       ! Window Glass Spectral Data Set Name
  0.003,                                  ! Thickness {m}
  0.273738,                               ! Solar Transmittance at Normal Incidence
  0.676262,                               ! Front Side Solar Reflectance at Normal Incidence
  0.676262,                               ! Back Side Solar Reflectance at Normal Incidence
  0.34081,                                ! Visible Transmittance at Normal Incidence
  0.60919,                                ! Front Side Visible Reflectance at Normal Incidence
  0.60919,                                ! Back Side Visible Reflectance at Normal Incidence
  0,                                      ! Infrared Transmittance at Normal Incidence
  0.9,                                    ! Front Side Infrared Hemispherical Emissivity
  0.9,                                    ! Back Side Infrared Hemispherical Emissivity
  0.0213046;                              ! Conductivity {W/m-K}

OS:ComponentCost:LineItem,
  {f4a47dea-1098-4fa6-8d90-b5d66495d608}, ! Handle
  90.1 Windows Window Fixed 2416 Brk-HptMpr-Ins-Clr, ! Name
  ,                                       ! Type
  Construction,                           ! Line Item Type
  90.1 Windows Window Fixed 2416 Brk-HptMpr-Ins-Clr, ! Item Name
  ,                                       ! Object End Use Key
  ,                                       ! Quantity {dimensionless}
  0,                                      ! Material Cost {$}
  CostPerArea;                            ! Material Cost Units

OS:ComponentData,
  {d8ad2b7f-4076-43f2-8d04-ef6c66b3a300}, ! Handle
  Component Data 1,                       ! Name
  {18c0409c-6f27-484f-8b42-8f5e23987909}, ! UUID
  {4efada45-367a-4ebd-afa8-8ad9baeeb72c}, ! Version UUID
  1363981022,                             ! Creation Timestamp
  1363981022,                             ! Version Timestamp
  {e08aa072-0fdd-4325-b62a-6780caec689d}, ! Name of Object 1
  {66bcf408-574b-4d63-9ccf-64e73b2d488a}, ! Name of Object 2
  {f4a47dea-1098-4fa6-8d90-b5d66495d608}; ! Name of Object 3

