
OS:Version,
  {df0054d8-921e-48c2-bd1a-e89b6fb37a09}, ! Handle
  0.9.3;                                  ! Version Identifier

OS:Construction,
  {e7a15416-0cde-45ac-9cd4-e19600f42e36}, ! Handle
  90.1-2001 Nonres B1 Ext Slab Unheated - 8in Slab with Carpet, ! Name
  ,                                       ! Surface Rendering Name
  {22f95890-a69c-44d3-922f-b1c31d74cf2f}, ! Layer 1
  {bf7dfc79-42c6-45ec-a04b-c33c05e47196}; ! Layer 2

OS:Material,
  {22f95890-a69c-44d3-922f-b1c31d74cf2f}, ! Handle
  MAT-CC05 8 HW CONCRETE,                 ! Name
  Rough,                                  ! Roughness
  0.20321,                                ! Thickness {m}
  1.311,                                  ! Conductivity {W/m-K}
  2240,                                   ! Density {kg/m3}
  836.8,                                  ! Specific Heat {J/kg-K}
  0.9,                                    ! Thermal Absorptance
  0.7,                                    ! Solar Absorptance
  0.7;                                    ! Visible Absorptance

OS:Material:NoMass,
  {bf7dfc79-42c6-45ec-a04b-c33c05e47196}, ! Handle
  CP02 CARPET PAD,                        ! Name
  VeryRough,                              ! Roughness
  0.21648,                                ! Thermal Resistance {m2-K/W}
  0.9,                                    ! Thermal Absorptance
  0.7,                                    ! Solar Absorptance
  0.8;                                    ! Visible Absorptance

OS:ComponentCost:LineItem,
  {8a0b6f7b-8c0f-4051-85df-050e60d363ce}, ! Handle
  90.1-2001 Nonres B1 Ext Slab Unheated - 8in Slab with Carpet, ! Name
  ,                                       ! Type
  Construction,                           ! Line Item Type
  90.1-2001 Nonres B1 Ext Slab Unheated - 8in Slab with Carpet, ! Item Name
  ,                                       ! Object End Use Key
  ,                                       ! Quantity {dimensionless}
  45.52,                                  ! Material Cost {$}
  CostPerArea;                            ! Material Cost Units

OS:ComponentData,
  {a080aa71-8940-48db-a829-769776ae904f}, ! Handle
  Component Data 1,                       ! Name
  {882922dd-f903-405e-a2c3-27f78c30e8e1}, ! UUID
  {a900ae5c-1cdb-4dd7-8a76-a9fd22a4c76a}, ! Version UUID
  1363981291,                             ! Creation Timestamp
  1363981291,                             ! Version Timestamp
  {e7a15416-0cde-45ac-9cd4-e19600f42e36}, ! Name of Object 1
  {22f95890-a69c-44d3-922f-b1c31d74cf2f}, ! Name of Object 2
  {bf7dfc79-42c6-45ec-a04b-c33c05e47196}, ! Name of Object 3
  {8a0b6f7b-8c0f-4051-85df-050e60d363ce}; ! Name of Object 4

