
OS:Version,
  {8746231e-c41b-42c5-99a3-ffd9aef67abe}, ! Handle
  0.9.3;                                  ! Version Identifier

OS:Construction,
  {16ee1dca-a0e1-4eb2-995c-bb02d4b760bb}, ! Handle
  AEDG K12 Nonres 3A Skylight without Curb, ! Name
  ,                                       ! Surface Rendering Name
  {1a7d1d0f-dd17-4d0a-a3ff-66109d1684ba}; ! Layer 1

OS:WindowMaterial:Glazing,
  {1a7d1d0f-dd17-4d0a-a3ff-66109d1684ba}, ! Handle
  Theoretical Glass [246],                ! Name
  SpectralAverage,                        ! Optical Data Type
  ,                                       ! Window Glass Spectral Data Set Name
  0.003,                                  ! Thickness {m}
  0.346211,                               ! Solar Transmittance at Normal Incidence
  0.603789,                               ! Front Side Solar Reflectance at Normal Incidence
  0.603789,                               ! Back Side Solar Reflectance at Normal Incidence
  0.457336,                               ! Visible Transmittance at Normal Incidence
  0.492664,                               ! Front Side Visible Reflectance at Normal Incidence
  0.492664,                               ! Back Side Visible Reflectance at Normal Incidence
  0,                                      ! Infrared Transmittance at Normal Incidence
  0.999,                                  ! Front Side Infrared Hemispherical Emissivity
  0.999,                                  ! Back Side Infrared Hemispherical Emissivity
  72.7123;                                ! Conductivity {W/m-K}

OS:ComponentCost:LineItem,
  {fb28abaa-a0e6-438a-a9de-6d3f63c337e7}, ! Handle
  AEDG K12 Nonres 3A Skylight without Curb, ! Name
  ,                                       ! Type
  Construction,                           ! Line Item Type
  AEDG K12 Nonres 3A Skylight without Curb, ! Item Name
  ,                                       ! Object End Use Key
  ,                                       ! Quantity {dimensionless}
  527.515,                                ! Material Cost {$}
  CostPerArea;                            ! Material Cost Units

OS:ComponentData,
  {a2e7a422-7bf4-41f5-ace4-a4be8257caff}, ! Handle
  Component Data 1,                       ! Name
  {e65fc9d5-0c12-46cf-ad77-fecf5e10ac5e}, ! UUID
  {74a1a92e-fa2b-4398-ae18-4f5d2ce33d70}, ! Version UUID
  1363981889,                             ! Creation Timestamp
  1363981889,                             ! Version Timestamp
  {16ee1dca-a0e1-4eb2-995c-bb02d4b760bb}, ! Name of Object 1
  {1a7d1d0f-dd17-4d0a-a3ff-66109d1684ba}, ! Name of Object 2
  {fb28abaa-a0e6-438a-a9de-6d3f63c337e7}; ! Name of Object 3

