
OS:Version,
  {e253be67-ec4f-48b9-9c1c-f5e503201ada}, ! Handle
  0.9.3;                                  ! Version Identifier

OS:WindowMaterial:Glazing,
  {f81c8aa8-e00d-4e15-adc8-cc78d09ea3b6}, ! Handle
  Theoretical Glass [246],                ! Name
  SpectralAverage,                        ! Optical Data Type
  ,                                       ! Window Glass Spectral Data Set Name
  0.003,                                  ! Thickness {m}
  0.346211,                               ! Solar Transmittance at Normal Incidence
  0.603789,                               ! Front Side Solar Reflectance at Normal Incidence
  0.603789,                               ! Back Side Solar Reflectance at Normal Incidence
  0.457336,                               ! Visible Transmittance at Normal Incidence
  0.492664,                               ! Front Side Visible Reflectance at Normal Incidence
  0.492664,                               ! Back Side Visible Reflectance at Normal Incidence
  0,                                      ! Infrared Transmittance at Normal Incidence
  0.999,                                  ! Front Side Infrared Hemispherical Emissivity
  0.999,                                  ! Back Side Infrared Hemispherical Emissivity
  72.7123;                                ! Conductivity {W/m-K}

OS:Construction,
  {9e47a3e6-5682-432f-8721-b53fdea74f9a}, ! Handle
  AEDG K12 Nonres 3A Skylight without Curb, ! Name
  ,                                       ! Surface Rendering Name
  {f81c8aa8-e00d-4e15-adc8-cc78d09ea3b6}; ! Layer 1

OS:ComponentCost:LineItem,
  {081c3e84-19be-4a3e-9bba-e2704ad13e93}, ! Handle
  AEDG K12 Nonres 3A Skylight without Curb, ! Name
  ,                                       ! Type
  Construction,                           ! Line Item Type
  AEDG K12 Nonres 3A Skylight without Curb, ! Item Name
  ,                                       ! Object End Use Key
  ,                                       ! Quantity {dimensionless}
  527.515,                                ! Material Cost {$}
  CostPerArea;                            ! Material Cost Units

