
OS:Version,
  {8ed845ce-8837-47d9-8575-4037318a6cc4}, ! Handle
  0.9.3;                                  ! Version Identifier

OS:WindowMaterial:Glazing,
  {4acdcba6-d065-4c07-9f25-f4fd851556ff}, ! Handle
  Theoretical Glass [667],                ! Name
  SpectralAverage,                        ! Optical Data Type
  ,                                       ! Window Glass Spectral Data Set Name
  0.003,                                  ! Thickness {m}
  0.351757,                               ! Solar Transmittance at Normal Incidence
  0.598243,                               ! Front Side Solar Reflectance at Normal Incidence
  0.598243,                               ! Back Side Solar Reflectance at Normal Incidence
  0.360158,                               ! Visible Transmittance at Normal Incidence
  0.589842,                               ! Front Side Visible Reflectance at Normal Incidence
  0.589842,                               ! Back Side Visible Reflectance at Normal Incidence
  0,                                      ! Infrared Transmittance at Normal Incidence
  0.84,                                   ! Front Side Infrared Hemispherical Emissivity
  0.84,                                   ! Back Side Infrared Hemispherical Emissivity
  0.0305466;                              ! Conductivity {W/m-K}

OS:Construction,
  {7ced3454-cc9f-44e8-9820-5caccc3b317a}, ! Handle
  Title 24-2008 Nonres 13 Skylight without Curb, ! Name
  ,                                       ! Surface Rendering Name
  {4acdcba6-d065-4c07-9f25-f4fd851556ff}; ! Layer 1

OS:ComponentCost:LineItem,
  {fde7dd8e-d218-4f21-b07d-8f9766e2ad50}, ! Handle
  Title 24-2008 Nonres 13 Skylight without Curb, ! Name
  ,                                       ! Type
  Construction,                           ! Line Item Type
  Title 24-2008 Nonres 13 Skylight without Curb, ! Item Name
  ,                                       ! Object End Use Key
  ,                                       ! Quantity {dimensionless}
  529.667,                                ! Material Cost {$}
  CostPerArea;                            ! Material Cost Units

