
OS:Version,
  {b511772d-270f-42ef-9ccc-f73b0416b0b2}, ! Handle
  0.9.3;                                  ! Version Identifier

OS:Construction,
  {82a4bbed-7838-427d-8721-5b6148fe6116}, ! Handle
  Title 24-2008 Nonres 13 Skylight without Curb, ! Name
  ,                                       ! Surface Rendering Name
  {409b7d2d-4fb9-4e4b-8004-bd0659f73c48}; ! Layer 1

OS:WindowMaterial:Glazing,
  {409b7d2d-4fb9-4e4b-8004-bd0659f73c48}, ! Handle
  Theoretical Glass [667],                ! Name
  SpectralAverage,                        ! Optical Data Type
  ,                                       ! Window Glass Spectral Data Set Name
  0.003,                                  ! Thickness {m}
  0.351757,                               ! Solar Transmittance at Normal Incidence
  0.598243,                               ! Front Side Solar Reflectance at Normal Incidence
  0.598243,                               ! Back Side Solar Reflectance at Normal Incidence
  0.360158,                               ! Visible Transmittance at Normal Incidence
  0.589842,                               ! Front Side Visible Reflectance at Normal Incidence
  0.589842,                               ! Back Side Visible Reflectance at Normal Incidence
  0,                                      ! Infrared Transmittance at Normal Incidence
  0.84,                                   ! Front Side Infrared Hemispherical Emissivity
  0.84,                                   ! Back Side Infrared Hemispherical Emissivity
  0.0305466;                              ! Conductivity {W/m-K}

OS:ComponentCost:LineItem,
  {5ec7d3e0-83ad-4c84-be7a-e06f8a151fee}, ! Handle
  Title 24-2008 Nonres 13 Skylight without Curb, ! Name
  ,                                       ! Type
  Construction,                           ! Line Item Type
  Title 24-2008 Nonres 13 Skylight without Curb, ! Item Name
  ,                                       ! Object End Use Key
  ,                                       ! Quantity {dimensionless}
  529.667,                                ! Material Cost {$}
  CostPerArea;                            ! Material Cost Units

OS:ComponentData,
  {b65e158c-9a30-48b7-b1bd-ce61f421563b}, ! Handle
  Component Data 1,                       ! Name
  {444ea613-72d9-48ae-abfe-caecd44db87d}, ! UUID
  {32546dad-53cb-4875-9a9a-49a87d46ddd5}, ! Version UUID
  1363982097,                             ! Creation Timestamp
  1363982097,                             ! Version Timestamp
  {82a4bbed-7838-427d-8721-5b6148fe6116}, ! Name of Object 1
  {409b7d2d-4fb9-4e4b-8004-bd0659f73c48}, ! Name of Object 2
  {5ec7d3e0-83ad-4c84-be7a-e06f8a151fee}; ! Name of Object 3

