
OS:Version,
  {c4517e3c-3965-42ec-88d1-89157aae1522}, ! Handle
  0.9.3;                                  ! Version Identifier

OS:Material,
  {c9df5b23-e3ac-4487-a705-5669b4172bb0}, ! Handle
  MAT-CC05 4 HW CONCRETE,                 ! Name
  Rough,                                  ! Roughness
  0.1016,                                 ! Thickness {m}
  1.311,                                  ! Conductivity {W/m-K}
  2240,                                   ! Density {kg/m3}
  836.8,                                  ! Specific Heat {J/kg-K}
  0.9,                                    ! Thermal Absorptance
  0.7,                                    ! Solar Absorptance
  0.7;                                    ! Visible Absorptance

OS:Construction,
  {f5600d51-d59a-4699-a872-b8bb08c426b2}, ! Handle
  90.1-1999 Res B20 Ext Slab Unheated - 4in Slab without Carpet, ! Name
  ,                                       ! Surface Rendering Name
  {c9df5b23-e3ac-4487-a705-5669b4172bb0}; ! Layer 1

OS:ComponentCost:LineItem,
  {81c890b5-954c-4343-9fed-aff9226f4d21}, ! Handle
  90.1-1999 Res B20 Ext Slab Unheated - 4in Slab without Carpet, ! Name
  ,                                       ! Type
  Construction,                           ! Line Item Type
  90.1-1999 Res B20 Ext Slab Unheated - 4in Slab without Carpet, ! Item Name
  ,                                       ! Object End Use Key
  ,                                       ! Quantity {dimensionless}
  45.52,                                  ! Material Cost {$}
  CostPerArea;                            ! Material Cost Units

