
OS:Version,
  {6829c273-1348-42ef-b0ef-b39a19488679}, ! Handle
  0.9.3;                                  ! Version Identifier

OS:ComponentCost:LineItem,
  {5b8087ff-db57-4ed8-85e2-410905376531}, ! Handle
  90.1 Windows Window Fixed 2411 Brk-Clr-Ins-Clr, ! Name
  ,                                       ! Type
  Construction,                           ! Line Item Type
  90.1 Windows Window Fixed 2411 Brk-Clr-Ins-Clr, ! Item Name
  ,                                       ! Object End Use Key
  ,                                       ! Quantity {dimensionless}
  0,                                      ! Material Cost {$}
  CostPerArea;                            ! Material Cost Units

OS:Construction,
  {225fdfa6-9806-49c5-8106-c47d4d01b8fd}, ! Handle
  90.1 Windows Window Fixed 2411 Brk-Clr-Ins-Clr, ! Name
  ,                                       ! Surface Rendering Name
  {6c5102c2-0f50-490d-a5a2-743cfe14f0a4}; ! Layer 1

OS:WindowMaterial:Glazing,
  {6c5102c2-0f50-490d-a5a2-743cfe14f0a4}, ! Handle
  Theoretical Glass [268],                ! Name
  SpectralAverage,                        ! Optical Data Type
  ,                                       ! Window Glass Spectral Data Set Name
  0.003,                                  ! Thickness {m}
  0.672257,                               ! Solar Transmittance at Normal Incidence
  0.277743,                               ! Front Side Solar Reflectance at Normal Incidence
  0.277743,                               ! Back Side Solar Reflectance at Normal Incidence
  0.70976,                                ! Visible Transmittance at Normal Incidence
  0.24024,                                ! Front Side Visible Reflectance at Normal Incidence
  0.24024,                                ! Back Side Visible Reflectance at Normal Incidence
  0,                                      ! Infrared Transmittance at Normal Incidence
  0.9,                                    ! Front Side Infrared Hemispherical Emissivity
  0.9,                                    ! Back Side Infrared Hemispherical Emissivity
  0.0213046;                              ! Conductivity {W/m-K}

