
OS:Version,
  {5f5271ef-adbd-421a-b4b0-f5c128070286}, ! Handle
  0.9.3;                                  ! Version Identifier

OS:Material,
  {efca4831-9f2b-4e54-8ffb-18d0b89a0ebe}, ! Handle
  MAT-CC05 4 HW CONCRETE,                 ! Name
  Rough,                                  ! Roughness
  0.1016,                                 ! Thickness {m}
  1.311,                                  ! Conductivity {W/m-K}
  2240,                                   ! Density {kg/m3}
  836.8,                                  ! Specific Heat {J/kg-K}
  0.9,                                    ! Thermal Absorptance
  0.7,                                    ! Solar Absorptance
  0.7;                                    ! Visible Absorptance

OS:Construction,
  {d5999b1c-02cb-4b7f-947d-7d0f2e9c2527}, ! Handle
  90.1-2004 Nonres 2A Ext Slab Unheated - 4in Slab without Carpet, ! Name
  ,                                       ! Surface Rendering Name
  {efca4831-9f2b-4e54-8ffb-18d0b89a0ebe}; ! Layer 1

OS:ComponentCost:LineItem,
  {15556914-0a03-4d21-9d27-f4e8930d008e}, ! Handle
  90.1-2004 Nonres 2A Ext Slab Unheated - 4in Slab without Carpet, ! Name
  ,                                       ! Type
  Construction,                           ! Line Item Type
  90.1-2004 Nonres 2A Ext Slab Unheated - 4in Slab without Carpet, ! Item Name
  ,                                       ! Object End Use Key
  ,                                       ! Quantity {dimensionless}
  45.52,                                  ! Material Cost {$}
  CostPerArea;                            ! Material Cost Units

