
! 
OS:Version,
  {9c37d538-db0d-4a47-9850-5bede7e76bd5}, !- Handle
  1.13.0;                                 !- Version Identifier


! {"nombreProductoCorto": "CLIMALIT PLUS con PLANITHERM XN F2 F5 6(14 argon90%) 4 (14 argon90%) 4", "codigoEAN": "", "handle": "d94e08c1-e1bc-4ae3-a397-7bca45ba117d", "g": 0.54, "tV": 0.74, "u": 0.6, "nombreProducto": "CLIMALIT PLUS con PLANITHERM XN F2 F5 6(14 argon90%) 4 (14 argon90%) 4\nU:0.6 W/m2K - g:0.54 - Tv: 0.74"}
OS:WindowMaterial:SimpleGlazingSystem,
  {d94e08c1-e1bc-4ae3-a397-7bca45ba117d}, !- Handle
  CLIMALIT PLUS con PLANITHERM XN F2 F5 6(14 argon90%) 4 (14 argon90%) 4, !- Name
  0.6,                                    !- U-Factor {W/m2-K}
  0.54,                                    !- Solar Heat Gain Coefficient
  0.74;                                    !- Visible Transmittance     
  
  
OS:Construction,
  {9bbf3229-fbe2-4850-8796-93aca4912c32}, !- Handle
  CLIMALIT PLUS con PLANITHERM XN F2 F5 6(14 argon90%) 4 (14 argon90%) 4,                         !- Name
  ,                                       !- Surface Rendering Name
  {d94e08c1-e1bc-4ae3-a397-7bca45ba117d}; !- Layer 1  

