
OS:Version,
  {def1ca98-60cf-4844-baf9-250ff704049b}, ! Handle
  0.9.3;                                  ! Version Identifier

OS:Material,
  {1828a0c4-c52d-421e-94c3-ab20b79f4d02}, ! Handle
  MAT-CC05 8 HW CONCRETE,                 ! Name
  Rough,                                  ! Roughness
  0.20321,                                ! Thickness {m}
  1.311,                                  ! Conductivity {W/m-K}
  2240,                                   ! Density {kg/m3}
  836.8,                                  ! Specific Heat {J/kg-K}
  0.9,                                    ! Thermal Absorptance
  0.7,                                    ! Solar Absorptance
  0.7;                                    ! Visible Absorptance

OS:Material:NoMass,
  {f7a3f051-4a6d-4c36-9efa-f7987e38cfff}, ! Handle
  CP02 CARPET PAD,                        ! Name
  VeryRough,                              ! Roughness
  0.21648,                                ! Thermal Resistance {m2-K/W}
  0.9,                                    ! Thermal Absorptance
  0.7,                                    ! Solar Absorptance
  0.8;                                    ! Visible Absorptance

OS:ComponentCost:LineItem,
  {9465b0c5-493d-4d95-bd7f-a8ed66623a6b}, ! Handle
  90.1-2001 Nonres B25 Ext Slab Unheated - 8in Slab with Carpet, ! Name
  ,                                       ! Type
  Construction,                           ! Line Item Type
  90.1-2001 Nonres B25 Ext Slab Unheated - 8in Slab with Carpet, ! Item Name
  ,                                       ! Object End Use Key
  ,                                       ! Quantity {dimensionless}
  45.52,                                  ! Material Cost {$}
  CostPerArea;                            ! Material Cost Units

OS:Construction,
  {4d791f6e-0ecb-40b7-886f-ec5efef4237d}, ! Handle
  90.1-2001 Nonres B25 Ext Slab Unheated - 8in Slab with Carpet, ! Name
  ,                                       ! Surface Rendering Name
  {1828a0c4-c52d-421e-94c3-ab20b79f4d02}, ! Layer 1
  {f7a3f051-4a6d-4c36-9efa-f7987e38cfff}; ! Layer 2

