
OS:Version,
  {72862e95-b683-4287-8b5a-ed436e71f51e}, ! Handle
  0.9.3;                                  ! Version Identifier

OS:Construction,
  {6e2af954-2b46-4e4f-a477-5e16486a35f8}, ! Handle
  AEDG-SmOffice 3A Door Non-Swinging,     ! Name
  ,                                       ! Surface Rendering Name
  {5be86aad-c403-4781-898a-80a0dedb1f91}; ! Layer 1

OS:Material:NoMass,
  {5be86aad-c403-4781-898a-80a0dedb1f91}, ! Handle
  DoorMaterial [1],                       ! Name
  MediumRough,                            ! Roughness
  0.121457,                               ! Thermal Resistance {m2-K/W}
  0.9,                                    ! Thermal Absorptance
  0.7,                                    ! Solar Absorptance
  0.7;                                    ! Visible Absorptance

OS:ComponentCost:LineItem,
  {bdd5e824-5f41-487c-bbd7-e17ed44900be}, ! Handle
  AEDG-SmOffice 3A Door Non-Swinging,     ! Name
  ,                                       ! Type
  Construction,                           ! Line Item Type
  AEDG-SmOffice 3A Door Non-Swinging,     ! Item Name
  ,                                       ! Object End Use Key
  ,                                       ! Quantity {dimensionless}
  0,                                      ! Material Cost {$}
  CostPerArea;                            ! Material Cost Units

