
OS:Version,
  {172d0c99-6dd6-4dee-9497-2b51b0e89684}, ! Handle
  0.9.3;                                  ! Version Identifier

OS:Material,
  {c9c36879-dad0-460e-b6ad-bbad791f42b1}, ! Handle
  Roof Insulation [2],                    ! Name
  MediumRough,                            ! Roughness
  0.221604,                               ! Thickness {m}
  0.049,                                  ! Conductivity {W/m-K}
  265,                                    ! Density {kg/m3}
  836.8,                                  ! Specific Heat {J/kg-K}
  0.9,                                    ! Thermal Absorptance
  0.7,                                    ! Solar Absorptance
  0.7;                                    ! Visible Absorptance

OS:Material,
  {32574996-432e-4ab5-a6c3-4b96aabee8a0}, ! Handle
  1IN Wood Decking,                       ! Name
  MediumSmooth,                           ! Roughness
  0.0254,                                 ! Thickness {m}
  0.1211,                                 ! Conductivity {W/m-K}
  593,                                    ! Density {kg/m3}
  2510,                                   ! Specific Heat {J/kg-K}
  0.9,                                    ! Thermal Absorptance
  0.78,                                   ! Solar Absorptance
  0.78;                                   ! Visible Absorptance

OS:Construction,
  {1907d72d-e156-4b66-8547-0e209e17914c}, ! Handle
  90.1-1999 Nonres B5 Roof Attic and Other, ! Name
  ,                                       ! Surface Rendering Name
  {b4023ac6-42af-4c0c-bfdb-78ea5ee98913}, ! Layer 1
  {32574996-432e-4ab5-a6c3-4b96aabee8a0}, ! Layer 2
  {c9c36879-dad0-460e-b6ad-bbad791f42b1}, ! Layer 3
  {c3b4e783-c450-4d6a-9008-c9fd6bf4c280}; ! Layer 4

OS:Material,
  {b4023ac6-42af-4c0c-bfdb-78ea5ee98913}, ! Handle
  Wood Shingles,                          ! Name
  VeryRough,                              ! Roughness
  0.0178,                                 ! Thickness {m}
  0.115,                                  ! Conductivity {W/m-K}
  513,                                    ! Density {kg/m3}
  1255,                                   ! Specific Heat {J/kg-K}
  0.9,                                    ! Thermal Absorptance
  0.78,                                   ! Solar Absorptance
  0.78;                                   ! Visible Absorptance

OS:Material,
  {c3b4e783-c450-4d6a-9008-c9fd6bf4c280}, ! Handle
  1/2IN Gypsum,                           ! Name
  Smooth,                                 ! Roughness
  0.01271,                                ! Thickness {m}
  0.16,                                   ! Conductivity {W/m-K}
  784.9,                                  ! Density {kg/m3}
  830,                                    ! Specific Heat {J/kg-K}
  0.9,                                    ! Thermal Absorptance
  0.92,                                   ! Solar Absorptance
  0.92;                                   ! Visible Absorptance

OS:ComponentCost:LineItem,
  {53af6797-5dfa-4071-95e6-c9cd0fcf61a1}, ! Handle
  90.1-1999 Nonres B5 Roof Attic and Other, ! Name
  ,                                       ! Type
  Construction,                           ! Line Item Type
  90.1-1999 Nonres B5 Roof Attic and Other, ! Item Name
  ,                                       ! Object End Use Key
  ,                                       ! Quantity {dimensionless}
  33.39,                                  ! Material Cost {$}
  CostPerArea;                            ! Material Cost Units

