
OS:Version,
  {e2ccecf9-61e5-49ed-9cc8-e6288c4bb821}, ! Handle
  0.9.3;                                  ! Version Identifier

OS:Material,
  {4fc2b028-cfe3-4107-81db-c143ed870895}, ! Handle
  MAT-CC05 4 HW CONCRETE,                 ! Name
  Rough,                                  ! Roughness
  0.1016,                                 ! Thickness {m}
  1.311,                                  ! Conductivity {W/m-K}
  2240,                                   ! Density {kg/m3}
  836.8,                                  ! Specific Heat {J/kg-K}
  0.9,                                    ! Thermal Absorptance
  0.7,                                    ! Solar Absorptance
  0.7;                                    ! Visible Absorptance

OS:Material:NoMass,
  {1923d274-12b6-47b9-bf1e-f64b08b384e6}, ! Handle
  CP02 CARPET PAD,                        ! Name
  VeryRough,                              ! Roughness
  0.21648,                                ! Thermal Resistance {m2-K/W}
  0.9,                                    ! Thermal Absorptance
  0.7,                                    ! Solar Absorptance
  0.8;                                    ! Visible Absorptance

OS:ComponentCost:LineItem,
  {0e0d2f13-6dd0-4a53-baba-9248affc3817}, ! Handle
  189.1-2009 Nonres 7A Ext Slab Unheated - 4in Slab with Carpet, ! Name
  ,                                       ! Type
  Construction,                           ! Line Item Type
  189.1-2009 Nonres 7A Ext Slab Unheated - 4in Slab with Carpet, ! Item Name
  ,                                       ! Object End Use Key
  ,                                       ! Quantity {dimensionless}
  45.52,                                  ! Material Cost {$}
  CostPerArea;                            ! Material Cost Units

OS:Construction,
  {1dcc90e6-aaae-4913-8c4c-ecec067338ed}, ! Handle
  189.1-2009 Nonres 7A Ext Slab Unheated - 4in Slab with Carpet, ! Name
  ,                                       ! Surface Rendering Name
  {4fc2b028-cfe3-4107-81db-c143ed870895}, ! Layer 1
  {1923d274-12b6-47b9-bf1e-f64b08b384e6}; ! Layer 2

