
OS:Version,
  {87fe875c-e9cc-405b-8602-49a84a7fd1ec}, ! Handle
  0.9.3;                                  ! Version Identifier

OS:Construction,
  {366ce2c7-7654-46d4-b4c4-a2828b745a5b}, ! Handle
  AEDG SHC Nonres 2A Ext Wall Mass,       ! Name
  ,                                       ! Surface Rendering Name
  {9d00e871-1bc7-40d2-9b79-09b705b1a63c}, ! Layer 1
  {aa6272e1-9e31-49f5-94c6-6c195194763a}, ! Layer 2
  {7a4d2ed4-cd64-49a9-b36d-27eeca241ef8}, ! Layer 3
  {3d075e09-2f1d-4d93-b83e-24746aa49c26}; ! Layer 4

OS:Material,
  {9d00e871-1bc7-40d2-9b79-09b705b1a63c}, ! Handle
  1IN Stucco,                             ! Name
  Smooth,                                 ! Roughness
  0.0253,                                 ! Thickness {m}
  0.6918,                                 ! Conductivity {W/m-K}
  1858,                                   ! Density {kg/m3}
  837,                                    ! Specific Heat {J/kg-K}
  0.9,                                    ! Thermal Absorptance
  0.92,                                   ! Solar Absorptance
  0.92;                                   ! Visible Absorptance

OS:Material,
  {aa6272e1-9e31-49f5-94c6-6c195194763a}, ! Handle
  8IN Concrete HW,                        ! Name
  MediumRough,                            ! Roughness
  0.2033,                                 ! Thickness {m}
  1.7296,                                 ! Conductivity {W/m-K}
  2243,                                   ! Density {kg/m3}
  837,                                    ! Specific Heat {J/kg-K}
  0.9,                                    ! Thermal Absorptance
  0.65,                                   ! Solar Absorptance
  0.65;                                   ! Visible Absorptance

OS:Material,
  {7a4d2ed4-cd64-49a9-b36d-27eeca241ef8}, ! Handle
  Wall Insulation [60],                   ! Name
  MediumRough,                            ! Roughness
  0.0453675,                              ! Thickness {m}
  0.0432,                                 ! Conductivity {W/m-K}
  91,                                     ! Density {kg/m3}
  837,                                    ! Specific Heat {J/kg-K}
  0.9,                                    ! Thermal Absorptance
  0.5,                                    ! Solar Absorptance
  0.5;                                    ! Visible Absorptance

OS:Material,
  {3d075e09-2f1d-4d93-b83e-24746aa49c26}, ! Handle
  1/2IN Gypsum,                           ! Name
  Smooth,                                 ! Roughness
  0.01271,                                ! Thickness {m}
  0.16,                                   ! Conductivity {W/m-K}
  784.9,                                  ! Density {kg/m3}
  830,                                    ! Specific Heat {J/kg-K}
  0.9,                                    ! Thermal Absorptance
  0.92,                                   ! Solar Absorptance
  0.92;                                   ! Visible Absorptance

OS:ComponentCost:LineItem,
  {442433b1-3b69-4bfb-a495-d5f13ac5671b}, ! Handle
  AEDG SHC Nonres 2A Ext Wall Mass,       ! Name
  ,                                       ! Type
  Construction,                           ! Line Item Type
  AEDG SHC Nonres 2A Ext Wall Mass,       ! Item Name
  ,                                       ! Object End Use Key
  ,                                       ! Quantity {dimensionless}
  0,                                      ! Material Cost {$}
  CostPerArea;                            ! Material Cost Units

