
OS:Version,
  {885dfc61-311b-493f-a59f-890848702633}, ! Handle
  0.9.3;                                  ! Version Identifier

OS:Construction,
  {1a5ab494-16bc-4f30-afb0-5c486ec9c4b3}, ! Handle
  90.1-2001 Res B17 Ext Slab Unheated - 8in Slab with Carpet, ! Name
  ,                                       ! Surface Rendering Name
  {bd8a348c-4aea-4598-8a3c-843734102a70}, ! Layer 1
  {68b0e186-a9d0-4bff-80c3-4a0b9d895444}; ! Layer 2

OS:Material,
  {bd8a348c-4aea-4598-8a3c-843734102a70}, ! Handle
  MAT-CC05 8 HW CONCRETE,                 ! Name
  Rough,                                  ! Roughness
  0.20321,                                ! Thickness {m}
  1.311,                                  ! Conductivity {W/m-K}
  2240,                                   ! Density {kg/m3}
  836.8,                                  ! Specific Heat {J/kg-K}
  0.9,                                    ! Thermal Absorptance
  0.7,                                    ! Solar Absorptance
  0.7;                                    ! Visible Absorptance

OS:Material:NoMass,
  {68b0e186-a9d0-4bff-80c3-4a0b9d895444}, ! Handle
  CP02 CARPET PAD,                        ! Name
  VeryRough,                              ! Roughness
  0.21648,                                ! Thermal Resistance {m2-K/W}
  0.9,                                    ! Thermal Absorptance
  0.7,                                    ! Solar Absorptance
  0.8;                                    ! Visible Absorptance

OS:ComponentCost:LineItem,
  {107f236a-aa01-44cb-ae35-6066b591e7dc}, ! Handle
  90.1-2001 Res B17 Ext Slab Unheated - 8in Slab with Carpet, ! Name
  ,                                       ! Type
  Construction,                           ! Line Item Type
  90.1-2001 Res B17 Ext Slab Unheated - 8in Slab with Carpet, ! Item Name
  ,                                       ! Object End Use Key
  ,                                       ! Quantity {dimensionless}
  45.52,                                  ! Material Cost {$}
  CostPerArea;                            ! Material Cost Units

OS:ComponentData,
  {271aa77c-fcd0-4310-b371-eb9ec9fa7961}, ! Handle
  Component Data 1,                       ! Name
  {793f8adc-3938-4cb5-9686-0a804abdbdba}, ! UUID
  {ebd842f6-2a40-4ed7-bee1-bd315f7c6643}, ! Version UUID
  1363981552,                             ! Creation Timestamp
  1363981552,                             ! Version Timestamp
  {1a5ab494-16bc-4f30-afb0-5c486ec9c4b3}, ! Name of Object 1
  {bd8a348c-4aea-4598-8a3c-843734102a70}, ! Name of Object 2
  {68b0e186-a9d0-4bff-80c3-4a0b9d895444}, ! Name of Object 3
  {107f236a-aa01-44cb-ae35-6066b591e7dc}; ! Name of Object 4

