
OS:Version,
  {928fd508-fedf-49af-bd2f-89537f727726}, ! Handle
  0.9.3;                                  ! Version Identifier

OS:Construction,
  {522588c5-3459-471c-9ade-265a29c90f39}, ! Handle
  189.1-2009 Res 8A Int Wall,             ! Name
  ,                                       ! Surface Rendering Name
  {181e2e67-2aac-424c-8269-c242a01e5606}, ! Layer 1
  {181e2e67-2aac-424c-8269-c242a01e5606}; ! Layer 2

OS:Material,
  {181e2e67-2aac-424c-8269-c242a01e5606}, ! Handle
  GP01 1/2 GYPSUM,                        ! Name
  Smooth,                                 ! Roughness
  0.01271,                                ! Thickness {m}
  0.16,                                   ! Conductivity {W/m-K}
  800,                                    ! Density {kg/m3}
  1090,                                   ! Specific Heat {J/kg-K}
  0.9,                                    ! Thermal Absorptance
  0.7,                                    ! Solar Absorptance
  0.5;                                    ! Visible Absorptance

OS:ComponentCost:LineItem,
  {ab6e6e48-32ec-4880-958e-b87aad9e5778}, ! Handle
  189.1-2009 Res 8A Int Wall,             ! Name
  ,                                       ! Type
  Construction,                           ! Line Item Type
  189.1-2009 Res 8A Int Wall,             ! Item Name
  ,                                       ! Object End Use Key
  ,                                       ! Quantity {dimensionless}
  0,                                      ! Material Cost {$}
  CostPerArea;                            ! Material Cost Units

OS:ComponentData,
  {30a3d831-8220-4482-9c12-4bdd7687edc2}, ! Handle
  Component Data 1,                       ! Name
  {db854ad8-37a0-4475-82d8-629145094e7c}, ! UUID
  {c2f0465f-cadc-4b99-9b99-4dc71d74cd1d}, ! Version UUID
  1363980986,                             ! Creation Timestamp
  1363980986,                             ! Version Timestamp
  {522588c5-3459-471c-9ade-265a29c90f39}, ! Name of Object 1
  {181e2e67-2aac-424c-8269-c242a01e5606}, ! Name of Object 2
  {ab6e6e48-32ec-4880-958e-b87aad9e5778}; ! Name of Object 3

