
OS:Version,
  {26356114-e1a4-462f-b85e-d732cf1a2e9e}, ! Handle
  0.9.3;                                  ! Version Identifier

OS:Construction,
  {a404268a-145e-4fbc-a719-e79b727834e4}, ! Handle
  189.1-2009 Res 1A Ext Wall Mass,        ! Name
  ,                                       ! Surface Rendering Name
  {67c77454-cf24-4257-b570-7f780f902918}, ! Layer 1
  {c32ecf70-71aa-4b7c-8802-8029202c3710}, ! Layer 2
  {1f65d222-9702-498d-b402-82163360bb92}, ! Layer 3
  {7955bcba-ba8f-4c95-9ec9-816000fbf3c6}; ! Layer 4

OS:Material,
  {67c77454-cf24-4257-b570-7f780f902918}, ! Handle
  1IN Stucco,                             ! Name
  Smooth,                                 ! Roughness
  0.0253,                                 ! Thickness {m}
  0.6918,                                 ! Conductivity {W/m-K}
  1858,                                   ! Density {kg/m3}
  837,                                    ! Specific Heat {J/kg-K}
  0.9,                                    ! Thermal Absorptance
  0.92,                                   ! Solar Absorptance
  0.92;                                   ! Visible Absorptance

OS:Material,
  {c32ecf70-71aa-4b7c-8802-8029202c3710}, ! Handle
  8IN Concrete HW,                        ! Name
  MediumRough,                            ! Roughness
  0.2033,                                 ! Thickness {m}
  1.7296,                                 ! Conductivity {W/m-K}
  2243,                                   ! Density {kg/m3}
  837,                                    ! Specific Heat {J/kg-K}
  0.9,                                    ! Thermal Absorptance
  0.65,                                   ! Solar Absorptance
  0.65;                                   ! Visible Absorptance

OS:Material,
  {1f65d222-9702-498d-b402-82163360bb92}, ! Handle
  Wall Insulation [35],                   ! Name
  MediumRough,                            ! Roughness
  0.0451909,                              ! Thickness {m}
  0.0432,                                 ! Conductivity {W/m-K}
  91,                                     ! Density {kg/m3}
  837,                                    ! Specific Heat {J/kg-K}
  0.9,                                    ! Thermal Absorptance
  0.5,                                    ! Solar Absorptance
  0.5;                                    ! Visible Absorptance

OS:Material,
  {7955bcba-ba8f-4c95-9ec9-816000fbf3c6}, ! Handle
  1/2IN Gypsum,                           ! Name
  Smooth,                                 ! Roughness
  0.01271,                                ! Thickness {m}
  0.16,                                   ! Conductivity {W/m-K}
  784.9,                                  ! Density {kg/m3}
  830,                                    ! Specific Heat {J/kg-K}
  0.9,                                    ! Thermal Absorptance
  0.92,                                   ! Solar Absorptance
  0.92;                                   ! Visible Absorptance

OS:ComponentCost:LineItem,
  {b6d0416e-4894-4fc4-8775-c310f795799d}, ! Handle
  189.1-2009 Res 1A Ext Wall Mass,        ! Name
  ,                                       ! Type
  Construction,                           ! Line Item Type
  189.1-2009 Res 1A Ext Wall Mass,        ! Item Name
  ,                                       ! Object End Use Key
  ,                                       ! Quantity {dimensionless}
  61.384,                                 ! Material Cost {$}
  CostPerArea;                            ! Material Cost Units

OS:ComponentData,
  {057f385f-5ee6-467a-9ec1-f5a463ce3a3f}, ! Handle
  Component Data 1,                       ! Name
  {8cac2762-7608-4d0b-990d-6fc30d9bec09}, ! UUID
  {e2ec5f62-813c-4c8e-b6ac-12827d386813}, ! Version UUID
  1363980958,                             ! Creation Timestamp
  1363980958,                             ! Version Timestamp
  {a404268a-145e-4fbc-a719-e79b727834e4}, ! Name of Object 1
  {67c77454-cf24-4257-b570-7f780f902918}, ! Name of Object 2
  {c32ecf70-71aa-4b7c-8802-8029202c3710}, ! Name of Object 3
  {1f65d222-9702-498d-b402-82163360bb92}, ! Name of Object 4
  {7955bcba-ba8f-4c95-9ec9-816000fbf3c6}, ! Name of Object 5
  {b6d0416e-4894-4fc4-8775-c310f795799d}; ! Name of Object 6

