
OS:Version,
  {e7af2f47-b0ec-45f4-89aa-7df1a306db69}, ! Handle
  0.9.3;                                  ! Version Identifier

OS:Material,
  {2499fab8-0679-412e-80b9-0389f1ae2d15}, ! Handle
  1IN Stucco,                             ! Name
  Smooth,                                 ! Roughness
  0.0253,                                 ! Thickness {m}
  0.6918,                                 ! Conductivity {W/m-K}
  1858,                                   ! Density {kg/m3}
  837,                                    ! Specific Heat {J/kg-K}
  0.9,                                    ! Thermal Absorptance
  0.92,                                   ! Solar Absorptance
  0.92;                                   ! Visible Absorptance

OS:Material,
  {6aa5e2cb-3a49-46c0-b708-88d8b0068627}, ! Handle
  Wall Insulation [35],                   ! Name
  MediumRough,                            ! Roughness
  0.0451909,                              ! Thickness {m}
  0.0432,                                 ! Conductivity {W/m-K}
  91,                                     ! Density {kg/m3}
  837,                                    ! Specific Heat {J/kg-K}
  0.9,                                    ! Thermal Absorptance
  0.5,                                    ! Solar Absorptance
  0.5;                                    ! Visible Absorptance

OS:Material,
  {849aaf6d-4f5d-49ce-884d-89be892acda7}, ! Handle
  8IN Concrete HW,                        ! Name
  MediumRough,                            ! Roughness
  0.2033,                                 ! Thickness {m}
  1.7296,                                 ! Conductivity {W/m-K}
  2243,                                   ! Density {kg/m3}
  837,                                    ! Specific Heat {J/kg-K}
  0.9,                                    ! Thermal Absorptance
  0.65,                                   ! Solar Absorptance
  0.65;                                   ! Visible Absorptance

OS:Construction,
  {6f30f87f-17bb-43c4-ba37-a6ee0e1ec505}, ! Handle
  189.1-2009 Res 1A Ext Wall Mass,        ! Name
  ,                                       ! Surface Rendering Name
  {2499fab8-0679-412e-80b9-0389f1ae2d15}, ! Layer 1
  {849aaf6d-4f5d-49ce-884d-89be892acda7}, ! Layer 2
  {6aa5e2cb-3a49-46c0-b708-88d8b0068627}, ! Layer 3
  {14f1df79-eb9b-4f20-930f-7f5aa31d8ed4}; ! Layer 4

OS:Material,
  {14f1df79-eb9b-4f20-930f-7f5aa31d8ed4}, ! Handle
  1/2IN Gypsum,                           ! Name
  Smooth,                                 ! Roughness
  0.01271,                                ! Thickness {m}
  0.16,                                   ! Conductivity {W/m-K}
  784.9,                                  ! Density {kg/m3}
  830,                                    ! Specific Heat {J/kg-K}
  0.9,                                    ! Thermal Absorptance
  0.92,                                   ! Solar Absorptance
  0.92;                                   ! Visible Absorptance

OS:ComponentCost:LineItem,
  {bc8fcccd-9b71-49d5-a486-ede4f8cd4209}, ! Handle
  189.1-2009 Res 1A Ext Wall Mass,        ! Name
  ,                                       ! Type
  Construction,                           ! Line Item Type
  189.1-2009 Res 1A Ext Wall Mass,        ! Item Name
  ,                                       ! Object End Use Key
  ,                                       ! Quantity {dimensionless}
  61.384,                                 ! Material Cost {$}
  CostPerArea;                            ! Material Cost Units

