
OS:Version,
  {f9944a95-62b1-4c48-838a-867a383e3a7d}, ! Handle
  0.9.3;                                  ! Version Identifier

OS:Construction,
  {1730fb12-b858-492c-a597-e773c31e8a3a}, ! Handle
  189.1-2009 Res 7A Roof Attic and Other, ! Name
  ,                                       ! Surface Rendering Name
  {ec057355-edde-4a9f-b6d2-bf96a054f589}, ! Layer 1
  {7bb43ef5-1046-45e3-a334-10e3133a6979}, ! Layer 2
  {e73039dc-2dc5-4c58-91b6-975021cc97c1}, ! Layer 3
  {a301220e-a96c-44e3-b55f-7f7b413333eb}; ! Layer 4

OS:Material,
  {ec057355-edde-4a9f-b6d2-bf96a054f589}, ! Handle
  Wood Shingles,                          ! Name
  VeryRough,                              ! Roughness
  0.0178,                                 ! Thickness {m}
  0.115,                                  ! Conductivity {W/m-K}
  513,                                    ! Density {kg/m3}
  1255,                                   ! Specific Heat {J/kg-K}
  0.9,                                    ! Thermal Absorptance
  0.78,                                   ! Solar Absorptance
  0.78;                                   ! Visible Absorptance

OS:Material,
  {7bb43ef5-1046-45e3-a334-10e3133a6979}, ! Handle
  1IN Wood Decking,                       ! Name
  MediumSmooth,                           ! Roughness
  0.0254,                                 ! Thickness {m}
  0.1211,                                 ! Conductivity {W/m-K}
  593,                                    ! Density {kg/m3}
  2510,                                   ! Specific Heat {J/kg-K}
  0.9,                                    ! Thermal Absorptance
  0.78,                                   ! Solar Absorptance
  0.78;                                   ! Visible Absorptance

OS:Material,
  {e73039dc-2dc5-4c58-91b6-975021cc97c1}, ! Handle
  Roof Insulation [28],                   ! Name
  MediumRough,                            ! Roughness
  0.456829,                               ! Thickness {m}
  0.049,                                  ! Conductivity {W/m-K}
  265,                                    ! Density {kg/m3}
  836.8,                                  ! Specific Heat {J/kg-K}
  0.9,                                    ! Thermal Absorptance
  0.7,                                    ! Solar Absorptance
  0.7;                                    ! Visible Absorptance

OS:Material,
  {a301220e-a96c-44e3-b55f-7f7b413333eb}, ! Handle
  1/2IN Gypsum,                           ! Name
  Smooth,                                 ! Roughness
  0.01271,                                ! Thickness {m}
  0.16,                                   ! Conductivity {W/m-K}
  784.9,                                  ! Density {kg/m3}
  830,                                    ! Specific Heat {J/kg-K}
  0.9,                                    ! Thermal Absorptance
  0.92,                                   ! Solar Absorptance
  0.92;                                   ! Visible Absorptance

OS:ComponentCost:LineItem,
  {a3d8d70a-b7b4-454b-8f6b-aff1a2ef66f2}, ! Handle
  189.1-2009 Res 7A Roof Attic and Other, ! Name
  ,                                       ! Type
  Construction,                           ! Line Item Type
  189.1-2009 Res 7A Roof Attic and Other, ! Item Name
  ,                                       ! Object End Use Key
  ,                                       ! Quantity {dimensionless}
  38.18,                                  ! Material Cost {$}
  CostPerArea;                            ! Material Cost Units

