
OS:Version,
  {89307fb9-4f42-43ef-ab9f-c06e80db9811}, ! Handle
  0.9.3;                                  ! Version Identifier

OS:Material,
  {14f8c2b5-b987-4b1a-a862-e876403b8cd1}, ! Handle
  Metal Roofing [1],                      ! Name
  MediumSmooth,                           ! Roughness
  0.001524,                               ! Thickness {m}
  45.006,                                 ! Conductivity {W/m-K}
  7680,                                   ! Density {kg/m3}
  418.4,                                  ! Specific Heat {J/kg-K}
  0.9,                                    ! Thermal Absorptance
  0.7,                                    ! Solar Absorptance
  0.85;                                   ! Visible Absorptance

OS:ComponentCost:LineItem,
  {ea37c49c-a7dc-48f5-b7b3-e3f323d7a8f8}, ! Handle
  Title 24-2008 Nonres 4 Roof Metal Building, ! Name
  ,                                       ! Type
  Construction,                           ! Line Item Type
  Title 24-2008 Nonres 4 Roof Metal Building, ! Item Name
  ,                                       ! Object End Use Key
  ,                                       ! Quantity {dimensionless}
  38.21,                                  ! Material Cost {$}
  CostPerArea;                            ! Material Cost Units

OS:Construction,
  {81a47f86-e820-4f16-a9bb-6eb2591ade15}, ! Handle
  Title 24-2008 Nonres 4 Roof Metal Building, ! Name
  ,                                       ! Surface Rendering Name
  {14f8c2b5-b987-4b1a-a862-e876403b8cd1}, ! Layer 1
  {1a5533ea-08bc-4853-8508-946c12c77b97}; ! Layer 2

OS:Material,
  {1a5533ea-08bc-4853-8508-946c12c77b97}, ! Handle
  Roof Insulation [15],                   ! Name
  MediumRough,                            ! Roughness
  0.123565,                               ! Thickness {m}
  0.049,                                  ! Conductivity {W/m-K}
  265,                                    ! Density {kg/m3}
  836.8,                                  ! Specific Heat {J/kg-K}
  0.9,                                    ! Thermal Absorptance
  0.7,                                    ! Solar Absorptance
  0.7;                                    ! Visible Absorptance

