
OS:Version,
  {083bbade-3d02-4110-b84a-502d5ec1b33b}, ! Handle
  0.9.3;                                  ! Version Identifier

OS:Construction,
  {9ea9d0fc-d7d8-4a36-a63f-802730919a35}, ! Handle
  90.1-2001 Res B4 Roof IEAD,             ! Name
  ,                                       ! Surface Rendering Name
  {c374c900-50c4-4db1-85b4-189309eaae4e}, ! Layer 1
  {241df718-20ba-400c-a2d3-4e0478f9dfdd}, ! Layer 2
  {5460585c-5511-47e2-a45f-e551a663e0a1}; ! Layer 3

OS:Material,
  {c374c900-50c4-4db1-85b4-189309eaae4e}, ! Handle
  Roof Membrane,                          ! Name
  VeryRough,                              ! Roughness
  0.0095,                                 ! Thickness {m}
  0.16,                                   ! Conductivity {W/m-K}
  1121.29,                                ! Density {kg/m3}
  1460,                                   ! Specific Heat {J/kg-K}
  0.9,                                    ! Thermal Absorptance
  0.7,                                    ! Solar Absorptance
  0.7;                                    ! Visible Absorptance

OS:Material,
  {241df718-20ba-400c-a2d3-4e0478f9dfdd}, ! Handle
  Roof Insulation,                        ! Name
  MediumRough,                            ! Roughness
  0.124958,                               ! Thickness {m}
  0.049,                                  ! Conductivity {W/m-K}
  265,                                    ! Density {kg/m3}
  836.8,                                  ! Specific Heat {J/kg-K}
  0.9,                                    ! Thermal Absorptance
  0.7,                                    ! Solar Absorptance
  0.7;                                    ! Visible Absorptance

OS:Material,
  {5460585c-5511-47e2-a45f-e551a663e0a1}, ! Handle
  Metal Decking,                          ! Name
  MediumSmooth,                           ! Roughness
  0.001524,                               ! Thickness {m}
  45.006,                                 ! Conductivity {W/m-K}
  7680,                                   ! Density {kg/m3}
  418.4,                                  ! Specific Heat {J/kg-K}
  0.9,                                    ! Thermal Absorptance
  0.7,                                    ! Solar Absorptance
  0.3;                                    ! Visible Absorptance

OS:ComponentCost:LineItem,
  {b95be21f-3aad-4edf-aea3-11da8681cf19}, ! Handle
  90.1-2001 Res B4 Roof IEAD,             ! Name
  ,                                       ! Type
  Construction,                           ! Line Item Type
  90.1-2001 Res B4 Roof IEAD,             ! Item Name
  ,                                       ! Object End Use Key
  ,                                       ! Quantity {dimensionless}
  49.208,                                 ! Material Cost {$}
  CostPerArea;                            ! Material Cost Units

OS:ComponentData,
  {a25bc251-64e5-4757-8b74-94e8fa01c149}, ! Handle
  Component Data 1,                       ! Name
  {80ef17b6-63d5-4492-9670-10f685e6e4d4}, ! UUID
  {6e063b21-7bcf-4d87-a2b4-ec3d2823eea5}, ! Version UUID
  1363981463,                             ! Creation Timestamp
  1363981463,                             ! Version Timestamp
  {9ea9d0fc-d7d8-4a36-a63f-802730919a35}, ! Name of Object 1
  {c374c900-50c4-4db1-85b4-189309eaae4e}, ! Name of Object 2
  {241df718-20ba-400c-a2d3-4e0478f9dfdd}, ! Name of Object 3
  {5460585c-5511-47e2-a45f-e551a663e0a1}, ! Name of Object 4
  {b95be21f-3aad-4edf-aea3-11da8681cf19}; ! Name of Object 5

