
OS:Version,
  {c83b10cf-0466-4985-a254-2db6db4888c2}, ! Handle
  0.9.3;                                  ! Version Identifier

OS:Construction,
  {aa580ad3-ad9e-4760-8b3a-757c93a6fea0}, ! Handle
  AEDG SHC Nonres 5B Ext Wall Steel-Framed, ! Name
  ,                                       ! Surface Rendering Name
  {24956042-c661-425d-b748-dcbaec2b46df}, ! Layer 1
  {803f7f79-ef44-4e50-8b26-98173915a002}, ! Layer 2
  {d7d706b8-6d1d-4a8b-83b7-ad298374742d}; ! Layer 3

OS:Material:NoMass,
  {24956042-c661-425d-b748-dcbaec2b46df}, ! Handle
  MAT-SHEATH,                             ! Name
  Rough,                                  ! Roughness
  0.36256,                                ! Thermal Resistance {m2-K/W}
  0.9,                                    ! Thermal Absorptance
  0.7,                                    ! Solar Absorptance
  0.7;                                    ! Visible Absorptance

OS:Material,
  {803f7f79-ef44-4e50-8b26-98173915a002}, ! Handle
  Wall Insulation [62],                   ! Name
  MediumRough,                            ! Roughness
  0.160675,                               ! Thickness {m}
  0.045,                                  ! Conductivity {W/m-K}
  265,                                    ! Density {kg/m3}
  836.8,                                  ! Specific Heat {J/kg-K}
  0.9,                                    ! Thermal Absorptance
  0.7,                                    ! Solar Absorptance
  0.7;                                    ! Visible Absorptance

OS:Material,
  {d7d706b8-6d1d-4a8b-83b7-ad298374742d}, ! Handle
  1/2IN Gypsum,                           ! Name
  Smooth,                                 ! Roughness
  0.01271,                                ! Thickness {m}
  0.16,                                   ! Conductivity {W/m-K}
  784.9,                                  ! Density {kg/m3}
  830,                                    ! Specific Heat {J/kg-K}
  0.9,                                    ! Thermal Absorptance
  0.92,                                   ! Solar Absorptance
  0.92;                                   ! Visible Absorptance

OS:ComponentCost:LineItem,
  {aa1d2b08-0cf1-4543-8dea-392faa1a4a69}, ! Handle
  AEDG SHC Nonres 5B Ext Wall Steel-Framed, ! Name
  ,                                       ! Type
  Construction,                           ! Line Item Type
  AEDG SHC Nonres 5B Ext Wall Steel-Framed, ! Item Name
  ,                                       ! Object End Use Key
  ,                                       ! Quantity {dimensionless}
  0,                                      ! Material Cost {$}
  CostPerArea;                            ! Material Cost Units

OS:ComponentData,
  {a49eaa9f-aa0f-4809-bcf8-cb4aa3e12c3c}, ! Handle
  Component Data 1,                       ! Name
  {8dc3f9c6-6046-4d3f-ba3c-6fa59ff3790d}, ! UUID
  {33acb2a1-1163-445a-988d-c3cebac091ca}, ! Version UUID
  1363981924,                             ! Creation Timestamp
  1363981924,                             ! Version Timestamp
  {aa580ad3-ad9e-4760-8b3a-757c93a6fea0}, ! Name of Object 1
  {24956042-c661-425d-b748-dcbaec2b46df}, ! Name of Object 2
  {803f7f79-ef44-4e50-8b26-98173915a002}, ! Name of Object 3
  {d7d706b8-6d1d-4a8b-83b7-ad298374742d}, ! Name of Object 4
  {aa1d2b08-0cf1-4543-8dea-392faa1a4a69}; ! Name of Object 5

