
OS:Version,
  {b8faaac0-f163-4bca-a42f-e3ca4efa5648}, ! Handle
  0.9.3;                                  ! Version Identifier

OS:Material,
  {0f226d9d-4abc-41e1-ab0d-f14203e86863}, ! Handle
  1IN Stucco,                             ! Name
  Smooth,                                 ! Roughness
  0.0253,                                 ! Thickness {m}
  0.6918,                                 ! Conductivity {W/m-K}
  1858,                                   ! Density {kg/m3}
  837,                                    ! Specific Heat {J/kg-K}
  0.9,                                    ! Thermal Absorptance
  0.92,                                   ! Solar Absorptance
  0.92;                                   ! Visible Absorptance

OS:Material,
  {cb9e89ba-07b7-4849-aa65-1ca73aae32e6}, ! Handle
  8IN Concrete HW,                        ! Name
  MediumRough,                            ! Roughness
  0.2033,                                 ! Thickness {m}
  1.7296,                                 ! Conductivity {W/m-K}
  2243,                                   ! Density {kg/m3}
  837,                                    ! Specific Heat {J/kg-K}
  0.9,                                    ! Thermal Absorptance
  0.65,                                   ! Solar Absorptance
  0.65;                                   ! Visible Absorptance

OS:ComponentCost:LineItem,
  {9b53f65f-afcb-4682-92f7-dc53192acb3c}, ! Handle
  90.1-2001 Nonres B3 Ext Wall Mass,      ! Name
  ,                                       ! Type
  Construction,                           ! Line Item Type
  90.1-2001 Nonres B3 Ext Wall Mass,      ! Item Name
  ,                                       ! Object End Use Key
  ,                                       ! Quantity {dimensionless}
  41.397,                                 ! Material Cost {$}
  CostPerArea;                            ! Material Cost Units

OS:Material,
  {f21fb303-567a-4c2c-85fc-ae1ac39e55e8}, ! Handle
  1/2IN Gypsum,                           ! Name
  Smooth,                                 ! Roughness
  0.01271,                                ! Thickness {m}
  0.16,                                   ! Conductivity {W/m-K}
  784.9,                                  ! Density {kg/m3}
  830,                                    ! Specific Heat {J/kg-K}
  0.9,                                    ! Thermal Absorptance
  0.92,                                   ! Solar Absorptance
  0.92;                                   ! Visible Absorptance

OS:Construction,
  {d11f4671-5b62-4dec-86d6-4cc25a646ca5}, ! Handle
  90.1-2001 Nonres B3 Ext Wall Mass,      ! Name
  ,                                       ! Surface Rendering Name
  {0f226d9d-4abc-41e1-ab0d-f14203e86863}, ! Layer 1
  {cb9e89ba-07b7-4849-aa65-1ca73aae32e6}, ! Layer 2
  {f21fb303-567a-4c2c-85fc-ae1ac39e55e8}; ! Layer 3

