
OS:Version,
  {40cfe146-1aee-45b1-899b-6520b965afd6}, ! Handle
  0.9.3;                                  ! Version Identifier

OS:Material:NoMass,
  {8d7ad1cd-975d-4021-8130-3df816f4ea8c}, ! Handle
  CP02 CARPET PAD,                        ! Name
  VeryRough,                              ! Roughness
  0.21648,                                ! Thermal Resistance {m2-K/W}
  0.9,                                    ! Thermal Absorptance
  0.7,                                    ! Solar Absorptance
  0.8;                                    ! Visible Absorptance

OS:ComponentCost:LineItem,
  {1b608e01-a803-45f2-bfa7-dac120e4d05f}, ! Handle
  AEDG SHC Nonres 3A Exposed Floor Mass,  ! Name
  ,                                       ! Type
  Construction,                           ! Line Item Type
  AEDG SHC Nonres 3A Exposed Floor Mass,  ! Item Name
  ,                                       ! Object End Use Key
  ,                                       ! Quantity {dimensionless}
  0,                                      ! Material Cost {$}
  CostPerArea;                            ! Material Cost Units

OS:Construction,
  {ee5bd91c-8512-4be9-9301-b5330e005a1b}, ! Handle
  AEDG SHC Nonres 3A Exposed Floor Mass,  ! Name
  ,                                       ! Surface Rendering Name
  {ec7efb91-02c3-4640-8321-2a102cb59c3a}, ! Layer 1
  {e60b441c-9d28-491e-bdb0-8c9758a34a0c}, ! Layer 2
  {8d7ad1cd-975d-4021-8130-3df816f4ea8c}; ! Layer 3

OS:Material,
  {ec7efb91-02c3-4640-8321-2a102cb59c3a}, ! Handle
  Floor Insulation [3],                   ! Name
  MediumRough,                            ! Roughness
  0.0962549,                              ! Thickness {m}
  0.045,                                  ! Conductivity {W/m-K}
  265,                                    ! Density {kg/m3}
  836.8,                                  ! Specific Heat {J/kg-K}
  0.9,                                    ! Thermal Absorptance
  0.7,                                    ! Solar Absorptance
  0.7;                                    ! Visible Absorptance

OS:Material,
  {e60b441c-9d28-491e-bdb0-8c9758a34a0c}, ! Handle
  MAT-CC05 8 HW CONCRETE,                 ! Name
  Rough,                                  ! Roughness
  0.20321,                                ! Thickness {m}
  1.311,                                  ! Conductivity {W/m-K}
  2240,                                   ! Density {kg/m3}
  836.8,                                  ! Specific Heat {J/kg-K}
  0.9,                                    ! Thermal Absorptance
  0.7,                                    ! Solar Absorptance
  0.7;                                    ! Visible Absorptance

