
OS:Version,
  {edb5ffdd-cb14-4f94-a177-fa71c8819c97}, ! Handle
  0.9.3;                                  ! Version Identifier

OS:Construction,
  {d444edf2-71a4-4910-9293-d64856450cba}, ! Handle
  90.1 Windows Window Fixed 2633 Vnl-Hpt-Ins-ClrSpe, ! Name
  ,                                       ! Surface Rendering Name
  {7d1fdec6-f34f-4ed8-baf4-a9c533329bfc}; ! Layer 1

OS:WindowMaterial:Glazing,
  {7d1fdec6-f34f-4ed8-baf4-a9c533329bfc}, ! Handle
  Theoretical Glass [460],                ! Name
  SpectralAverage,                        ! Optical Data Type
  ,                                       ! Window Glass Spectral Data Set Name
  0.003,                                  ! Thickness {m}
  0.296268,                               ! Solar Transmittance at Normal Incidence
  0.653732,                               ! Front Side Solar Reflectance at Normal Incidence
  0.653732,                               ! Back Side Solar Reflectance at Normal Incidence
  0.469723,                               ! Visible Transmittance at Normal Incidence
  0.480277,                               ! Front Side Visible Reflectance at Normal Incidence
  0.480277,                               ! Back Side Visible Reflectance at Normal Incidence
  0,                                      ! Infrared Transmittance at Normal Incidence
  0.9,                                    ! Front Side Infrared Hemispherical Emissivity
  0.9,                                    ! Back Side Infrared Hemispherical Emissivity
  0.00846152;                             ! Conductivity {W/m-K}

OS:ComponentCost:LineItem,
  {7b296bf5-7bd9-44b2-8783-04db30b4b2ad}, ! Handle
  90.1 Windows Window Fixed 2633 Vnl-Hpt-Ins-ClrSpe, ! Name
  ,                                       ! Type
  Construction,                           ! Line Item Type
  90.1 Windows Window Fixed 2633 Vnl-Hpt-Ins-ClrSpe, ! Item Name
  ,                                       ! Object End Use Key
  ,                                       ! Quantity {dimensionless}
  0,                                      ! Material Cost {$}
  CostPerArea;                            ! Material Cost Units

