
OS:Version,
  {e1df3464-8542-4d6c-bc94-03517192a7ac}, ! Handle
  0.9.3;                                  ! Version Identifier

OS:Construction,
  {64f97c25-0638-4372-b8eb-3cd904d8dd78}, ! Handle
  90.1-2001 Nonres B13 Int Wall,          ! Name
  ,                                       ! Surface Rendering Name
  {07de369b-7855-4564-93cf-efd8c8ec3ce8}, ! Layer 1
  {07de369b-7855-4564-93cf-efd8c8ec3ce8}; ! Layer 2

OS:Material,
  {07de369b-7855-4564-93cf-efd8c8ec3ce8}, ! Handle
  GP01 1/2 GYPSUM,                        ! Name
  Smooth,                                 ! Roughness
  0.01271,                                ! Thickness {m}
  0.16,                                   ! Conductivity {W/m-K}
  800,                                    ! Density {kg/m3}
  1090,                                   ! Specific Heat {J/kg-K}
  0.9,                                    ! Thermal Absorptance
  0.7,                                    ! Solar Absorptance
  0.5;                                    ! Visible Absorptance

OS:ComponentCost:LineItem,
  {0ecc0c61-8526-44bf-876e-8ac9bdb63e64}, ! Handle
  90.1-2001 Nonres B13 Int Wall,          ! Name
  ,                                       ! Type
  Construction,                           ! Line Item Type
  90.1-2001 Nonres B13 Int Wall,          ! Item Name
  ,                                       ! Object End Use Key
  ,                                       ! Quantity {dimensionless}
  0,                                      ! Material Cost {$}
  CostPerArea;                            ! Material Cost Units

OS:ComponentData,
  {9d3c693b-38ff-41d2-a962-dafb17a761b9}, ! Handle
  Component Data 1,                       ! Name
  {aa65579d-e159-4a4b-a174-08cb0011d1ce}, ! UUID
  {8a11a8a1-3ef3-4d53-8d9a-1f99f8a1b843}, ! Version UUID
  1363981355,                             ! Creation Timestamp
  1363981355,                             ! Version Timestamp
  {64f97c25-0638-4372-b8eb-3cd904d8dd78}, ! Name of Object 1
  {07de369b-7855-4564-93cf-efd8c8ec3ce8}, ! Name of Object 2
  {0ecc0c61-8526-44bf-876e-8ac9bdb63e64}; ! Name of Object 3

