
OS:Version,
  {b275f827-9dee-4a42-be3a-0ae3c9c0c817}, ! Handle
  0.9.3;                                  ! Version Identifier

OS:Construction,
  {7b1d9a68-f543-4fd2-bb7c-5adfdaa64419}, ! Handle
  90.1-2004 Res 8A Attic Floor,           ! Name
  ,                                       ! Surface Rendering Name
  {2f126913-cfbf-4295-9f6b-e0339d3de097}, ! Layer 1
  {6fd4fbef-725d-4229-a2c6-d2ecad1d21b8}, ! Layer 2
  {88885ef3-0074-436e-b38b-2aac24bd245a}; ! Layer 3

OS:Material,
  {2f126913-cfbf-4295-9f6b-e0339d3de097}, ! Handle
  1/2IN Gypsum Top,                       ! Name
  Smooth,                                 ! Roughness
  0.01271,                                ! Thickness {m}
  0.16,                                   ! Conductivity {W/m-K}
  784.9,                                  ! Density {kg/m3}
  830,                                    ! Specific Heat {J/kg-K}
  0.9,                                    ! Thermal Absorptance
  0.92,                                   ! Solar Absorptance
  0.92;                                   ! Visible Absorptance

OS:Material,
  {6fd4fbef-725d-4229-a2c6-d2ecad1d21b8}, ! Handle
  AtticFloor Insulation [1],              ! Name
  MediumRough,                            ! Roughness
  0.303719,                               ! Thickness {m}
  0.049,                                  ! Conductivity {W/m-K}
  265,                                    ! Density {kg/m3}
  836.8,                                  ! Specific Heat {J/kg-K}
  0.9,                                    ! Thermal Absorptance
  0.7,                                    ! Solar Absorptance
  0.7;                                    ! Visible Absorptance

OS:Material,
  {88885ef3-0074-436e-b38b-2aac24bd245a}, ! Handle
  1/2IN Gypsum Bottom,                    ! Name
  Smooth,                                 ! Roughness
  0.01271,                                ! Thickness {m}
  0.16,                                   ! Conductivity {W/m-K}
  784.9,                                  ! Density {kg/m3}
  830,                                    ! Specific Heat {J/kg-K}
  0.9,                                    ! Thermal Absorptance
  0.92,                                   ! Solar Absorptance
  0.92;                                   ! Visible Absorptance

OS:ComponentCost:LineItem,
  {e216405e-623f-46f6-9462-b92e116b700b}, ! Handle
  90.1-2004 Res 8A Attic Floor,           ! Name
  ,                                       ! Type
  Construction,                           ! Line Item Type
  90.1-2004 Res 8A Attic Floor,           ! Item Name
  ,                                       ! Object End Use Key
  ,                                       ! Quantity {dimensionless}
  35.009,                                 ! Material Cost {$}
  CostPerArea;                            ! Material Cost Units

