
OS:Version,
  {74218ebc-dbc6-4189-909f-0df5dd58fd5a}, ! Handle
  0.9.3;                                  ! Version Identifier

OS:Construction,
  {72086459-d1e1-4a61-b897-29b07a6278cb}, ! Handle
  90.1-2007 Nonres 1A Ext Slab Unheated - 4in Slab with Carpet, ! Name
  ,                                       ! Surface Rendering Name
  {821db59f-2f30-4326-b5af-9c57286aa513}, ! Layer 1
  {e2c75e91-8683-43d6-8038-8b24d5c63ba6}; ! Layer 2

OS:Material,
  {821db59f-2f30-4326-b5af-9c57286aa513}, ! Handle
  MAT-CC05 4 HW CONCRETE,                 ! Name
  Rough,                                  ! Roughness
  0.1016,                                 ! Thickness {m}
  1.311,                                  ! Conductivity {W/m-K}
  2240,                                   ! Density {kg/m3}
  836.8,                                  ! Specific Heat {J/kg-K}
  0.9,                                    ! Thermal Absorptance
  0.7,                                    ! Solar Absorptance
  0.7;                                    ! Visible Absorptance

OS:Material:NoMass,
  {e2c75e91-8683-43d6-8038-8b24d5c63ba6}, ! Handle
  CP02 CARPET PAD,                        ! Name
  VeryRough,                              ! Roughness
  0.21648,                                ! Thermal Resistance {m2-K/W}
  0.9,                                    ! Thermal Absorptance
  0.7,                                    ! Solar Absorptance
  0.8;                                    ! Visible Absorptance

OS:ComponentCost:LineItem,
  {05e5ec9c-bce5-4995-87c0-a49241e3d3f1}, ! Handle
  90.1-2007 Nonres 1A Ext Slab Unheated - 4in Slab with Carpet, ! Name
  ,                                       ! Type
  Construction,                           ! Line Item Type
  90.1-2007 Nonres 1A Ext Slab Unheated - 4in Slab with Carpet, ! Item Name
  ,                                       ! Object End Use Key
  ,                                       ! Quantity {dimensionless}
  45.52,                                  ! Material Cost {$}
  CostPerArea;                            ! Material Cost Units

