
OS:Version,
  {cffbaab6-3931-4dc1-88fb-a4f21e7d36c1}, ! Handle
  0.9.3;                                  ! Version Identifier

OS:Construction,
  {aff463e2-5b46-41a4-8661-d85e6a79d66c}, ! Handle
  90.1-2007 Res 5B Window Metal framing entrance door, ! Name
  ,                                       ! Surface Rendering Name
  {e750526f-61c0-484a-a227-bb36a3f76c2b}; ! Layer 1

OS:WindowMaterial:Glazing,
  {e750526f-61c0-484a-a227-bb36a3f76c2b}, ! Handle
  Theoretical Glass [185],                ! Name
  SpectralAverage,                        ! Optical Data Type
  ,                                       ! Window Glass Spectral Data Set Name
  0.003,                                  ! Thickness {m}
  0.39034,                                ! Solar Transmittance at Normal Incidence
  0.55966,                                ! Front Side Solar Reflectance at Normal Incidence
  0.55966,                                ! Back Side Solar Reflectance at Normal Incidence
  0.507883,                               ! Visible Transmittance at Normal Incidence
  0.442117,                               ! Front Side Visible Reflectance at Normal Incidence
  0.442117,                               ! Back Side Visible Reflectance at Normal Incidence
  0,                                      ! Infrared Transmittance at Normal Incidence
  0.9,                                    ! Front Side Infrared Hemispherical Emissivity
  0.9,                                    ! Back Side Infrared Hemispherical Emissivity
  0.0457051;                              ! Conductivity {W/m-K}

OS:ComponentCost:LineItem,
  {39f5fedb-81bc-40d6-aa19-d9d916413747}, ! Handle
  90.1-2007 Res 5B Window Metal framing entrance door, ! Name
  ,                                       ! Type
  Construction,                           ! Line Item Type
  90.1-2007 Res 5B Window Metal framing entrance door, ! Item Name
  ,                                       ! Object End Use Key
  ,                                       ! Quantity {dimensionless}
  512.02,                                 ! Material Cost {$}
  CostPerArea;                            ! Material Cost Units

