
OS:Version,
  {c8af32cf-3cfc-42ed-b1e5-36ac5fc8fae8}, ! Handle
  0.9.3;                                  ! Version Identifier

OS:Material,
  {fe9b24d2-67f7-4608-85f4-f71e7eebe7c3}, ! Handle
  Metal Decking,                          ! Name
  MediumSmooth,                           ! Roughness
  0.001524,                               ! Thickness {m}
  45.006,                                 ! Conductivity {W/m-K}
  7680,                                   ! Density {kg/m3}
  418.4,                                  ! Specific Heat {J/kg-K}
  0.9,                                    ! Thermal Absorptance
  0.7,                                    ! Solar Absorptance
  0.3;                                    ! Visible Absorptance

OS:Material,
  {00978cef-7585-4e90-84ac-8d052fa2756f}, ! Handle
  Roof Membrane,                          ! Name
  VeryRough,                              ! Roughness
  0.0095,                                 ! Thickness {m}
  0.16,                                   ! Conductivity {W/m-K}
  1121.29,                                ! Density {kg/m3}
  1460,                                   ! Specific Heat {J/kg-K}
  0.9,                                    ! Thermal Absorptance
  0.7,                                    ! Solar Absorptance
  0.7;                                    ! Visible Absorptance

OS:ComponentCost:LineItem,
  {dfbad6e4-e219-4a49-b86c-eceaeb38e4da}, ! Handle
  AEDG-SmOffice 6B Roof IEAD,             ! Name
  ,                                       ! Type
  Construction,                           ! Line Item Type
  AEDG-SmOffice 6B Roof IEAD,             ! Item Name
  ,                                       ! Object End Use Key
  ,                                       ! Quantity {dimensionless}
  52.896,                                 ! Material Cost {$}
  CostPerArea;                            ! Material Cost Units

OS:Material,
  {d49068bc-708e-433c-b94a-2d5652718177}, ! Handle
  Roof Insulation [7],                    ! Name
  MediumRough,                            ! Roughness
  0.167563,                               ! Thickness {m}
  0.049,                                  ! Conductivity {W/m-K}
  265,                                    ! Density {kg/m3}
  836.8,                                  ! Specific Heat {J/kg-K}
  0.9,                                    ! Thermal Absorptance
  0.7,                                    ! Solar Absorptance
  0.7;                                    ! Visible Absorptance

OS:Construction,
  {d799e0c1-735f-4b29-9da1-ec2c5d94ad13}, ! Handle
  AEDG-SmOffice 6B Roof IEAD,             ! Name
  ,                                       ! Surface Rendering Name
  {00978cef-7585-4e90-84ac-8d052fa2756f}, ! Layer 1
  {d49068bc-708e-433c-b94a-2d5652718177}, ! Layer 2
  {fe9b24d2-67f7-4608-85f4-f71e7eebe7c3}; ! Layer 3

