
OS:Version,
  {dee4c276-cdbb-4f55-9d08-d9e78cbf930f}, ! Handle
  0.9.3;                                  ! Version Identifier

OS:Construction,
  {86d4bd15-49ea-4d9d-ae4a-0b27abf09d39}, ! Handle
  90.1-1999 Nonres B26 Skylight without Curb, ! Name
  ,                                       ! Surface Rendering Name
  {3b51ebc8-1a55-4774-a78e-64310782b5ce}; ! Layer 1

OS:WindowMaterial:Glazing,
  {3b51ebc8-1a55-4774-a78e-64310782b5ce}, ! Handle
  Theoretical Glass [52],                 ! Name
  SpectralAverage,                        ! Optical Data Type
  ,                                       ! Window Glass Spectral Data Set Name
  0.003,                                  ! Thickness {m}
  0.482947,                               ! Solar Transmittance at Normal Incidence
  0.467053,                               ! Front Side Solar Reflectance at Normal Incidence
  0.467053,                               ! Back Side Solar Reflectance at Normal Incidence
  0.529698,                               ! Visible Transmittance at Normal Incidence
  0.420302,                               ! Front Side Visible Reflectance at Normal Incidence
  0.420302,                               ! Back Side Visible Reflectance at Normal Incidence
  0,                                      ! Infrared Transmittance at Normal Incidence
  0.9,                                    ! Front Side Infrared Hemispherical Emissivity
  0.9,                                    ! Back Side Infrared Hemispherical Emissivity
  0.0185413;                              ! Conductivity {W/m-K}

OS:ComponentCost:LineItem,
  {05753d7c-e9fa-45cd-b537-dac5d2db2c73}, ! Handle
  90.1-1999 Nonres B26 Skylight without Curb, ! Name
  ,                                       ! Type
  Construction,                           ! Line Item Type
  90.1-1999 Nonres B26 Skylight without Curb, ! Item Name
  ,                                       ! Object End Use Key
  ,                                       ! Quantity {dimensionless}
  537.952,                                ! Material Cost {$}
  CostPerArea;                            ! Material Cost Units

OS:ComponentData,
  {6581db42-73c4-461b-afff-b7bfe3f2b451}, ! Handle
  Component Data 1,                       ! Name
  {3e3b81a6-a81e-49c2-88ef-1570af2096b8}, ! UUID
  {bd7b5c36-3205-450d-ae93-e65da349284f}, ! Version UUID
  1363981161,                             ! Creation Timestamp
  1363981161,                             ! Version Timestamp
  {86d4bd15-49ea-4d9d-ae4a-0b27abf09d39}, ! Name of Object 1
  {3b51ebc8-1a55-4774-a78e-64310782b5ce}, ! Name of Object 2
  {05753d7c-e9fa-45cd-b537-dac5d2db2c73}; ! Name of Object 3

