
OS:Version,
  {31593e77-798c-4f08-9af3-064cd2782f83}, ! Handle
  0.9.3;                                  ! Version Identifier

OS:Material,
  {0c627aa7-ca3b-43cd-98a4-e7e17fd5a9c5}, ! Handle
  1/2IN Gypsum,                           ! Name
  Smooth,                                 ! Roughness
  0.01271,                                ! Thickness {m}
  0.16,                                   ! Conductivity {W/m-K}
  784.9,                                  ! Density {kg/m3}
  830,                                    ! Specific Heat {J/kg-K}
  0.9,                                    ! Thermal Absorptance
  0.92,                                   ! Solar Absorptance
  0.92;                                   ! Visible Absorptance

OS:Construction,
  {cc72fcc6-85ac-4da4-9f94-40fcb8611d74}, ! Handle
  AEDG-SmOffice 2A Ext Wall Spandrel,     ! Name
  ,                                       ! Surface Rendering Name
  {d514d030-6b94-4e50-bd18-18965ff98687}, ! Layer 1
  {9e35a0a3-ca76-4d73-8fc5-30072db4110e}, ! Layer 2
  {0c627aa7-ca3b-43cd-98a4-e7e17fd5a9c5}; ! Layer 3

OS:Material,
  {d514d030-6b94-4e50-bd18-18965ff98687}, ! Handle
  SpandrelGlass,                          ! Name
  Smooth,                                 ! Roughness
  0.007,                                  ! Thickness {m}
  45.31,                                  ! Conductivity {W/m-K}
  7833.02,                                ! Density {kg/m3}
  500,                                    ! Specific Heat {J/kg-K}
  0.9,                                    ! Thermal Absorptance
  0.23,                                   ! Solar Absorptance
  0.23;                                   ! Visible Absorptance

OS:Material,
  {9e35a0a3-ca76-4d73-8fc5-30072db4110e}, ! Handle
  Wall Insulation [50],                   ! Name
  MediumRough,                            ! Roughness
  0.078829,                               ! Thickness {m}
  0.045,                                  ! Conductivity {W/m-K}
  265,                                    ! Density {kg/m3}
  836.8,                                  ! Specific Heat {J/kg-K}
  0.9,                                    ! Thermal Absorptance
  0.7,                                    ! Solar Absorptance
  0.7;                                    ! Visible Absorptance

OS:ComponentCost:LineItem,
  {e4ddaee6-9e2e-4b88-9a30-2d72b71ccb49}, ! Handle
  AEDG-SmOffice 2A Ext Wall Spandrel,     ! Name
  ,                                       ! Type
  Construction,                           ! Line Item Type
  AEDG-SmOffice 2A Ext Wall Spandrel,     ! Item Name
  ,                                       ! Object End Use Key
  ,                                       ! Quantity {dimensionless}
  74.63,                                  ! Material Cost {$}
  CostPerArea;                            ! Material Cost Units

