
OS:Version,
  {5e1cee71-79c5-4511-85ba-de11882aba31}, ! Handle
  0.9.3;                                  ! Version Identifier

OS:ComponentCost:LineItem,
  {e83c463c-19cf-4de0-a5a9-c5e558498777}, ! Handle
  AEDG SHC Nonres 8A Roof IEAD,           ! Name
  ,                                       ! Type
  Construction,                           ! Line Item Type
  AEDG SHC Nonres 8A Roof IEAD,           ! Item Name
  ,                                       ! Object End Use Key
  ,                                       ! Quantity {dimensionless}
  0,                                      ! Material Cost {$}
  CostPerArea;                            ! Material Cost Units

OS:Construction,
  {f96de6b7-5d3e-4006-8f2c-644be75a34a7}, ! Handle
  AEDG SHC Nonres 8A Roof IEAD,           ! Name
  ,                                       ! Surface Rendering Name
  {768d158f-7269-4961-b816-1525f87d42d0}, ! Layer 1
  {a60326dd-8b56-46b3-bac7-330c4d4ad3ac}, ! Layer 2
  {3bd48df3-da24-4e99-b3b5-babb847aba30}; ! Layer 3

OS:Material,
  {768d158f-7269-4961-b816-1525f87d42d0}, ! Handle
  Roof Membrane,                          ! Name
  VeryRough,                              ! Roughness
  0.0095,                                 ! Thickness {m}
  0.16,                                   ! Conductivity {W/m-K}
  1121.29,                                ! Density {kg/m3}
  1460,                                   ! Specific Heat {J/kg-K}
  0.9,                                    ! Thermal Absorptance
  0.7,                                    ! Solar Absorptance
  0.7;                                    ! Visible Absorptance

OS:Material,
  {a60326dd-8b56-46b3-bac7-330c4d4ad3ac}, ! Handle
  Roof Insulation [33],                   ! Name
  MediumRough,                            ! Roughness
  0.29595,                                ! Thickness {m}
  0.049,                                  ! Conductivity {W/m-K}
  265,                                    ! Density {kg/m3}
  836.8,                                  ! Specific Heat {J/kg-K}
  0.9,                                    ! Thermal Absorptance
  0.7,                                    ! Solar Absorptance
  0.7;                                    ! Visible Absorptance

OS:Material,
  {3bd48df3-da24-4e99-b3b5-babb847aba30}, ! Handle
  Metal Decking,                          ! Name
  MediumSmooth,                           ! Roughness
  0.001524,                               ! Thickness {m}
  45.006,                                 ! Conductivity {W/m-K}
  7680,                                   ! Density {kg/m3}
  418.4,                                  ! Specific Heat {J/kg-K}
  0.9,                                    ! Thermal Absorptance
  0.7,                                    ! Solar Absorptance
  0.3;                                    ! Visible Absorptance

