
OS:Version,
  {b1a332ea-44f4-4c7c-8ba5-c699436870eb}, ! Handle
  0.9.3;                                  ! Version Identifier

OS:Material,
  {f2c3beca-a67d-4341-b5ec-4477cf9f83cf}, ! Handle
  1/2IN Gypsum,                           ! Name
  Smooth,                                 ! Roughness
  0.01271,                                ! Thickness {m}
  0.16,                                   ! Conductivity {W/m-K}
  784.9,                                  ! Density {kg/m3}
  830,                                    ! Specific Heat {J/kg-K}
  0.9,                                    ! Thermal Absorptance
  0.92,                                   ! Solar Absorptance
  0.92;                                   ! Visible Absorptance

OS:ComponentCost:LineItem,
  {f7ab47ff-2693-4f98-aa1c-44259d1f1db1}, ! Handle
  Title 24-2008 Nonres 2 Ext Wall Metal Building, ! Name
  ,                                       ! Type
  Construction,                           ! Line Item Type
  Title 24-2008 Nonres 2 Ext Wall Metal Building, ! Item Name
  ,                                       ! Object End Use Key
  ,                                       ! Quantity {dimensionless}
  184.211,                                ! Material Cost {$}
  CostPerArea;                            ! Material Cost Units

OS:Construction,
  {38c438fe-23dd-4e72-9ec9-0f7bbae64294}, ! Handle
  Title 24-2008 Nonres 2 Ext Wall Metal Building, ! Name
  ,                                       ! Surface Rendering Name
  {6d8206ab-88c9-4289-af7d-ebf0647c88f8}, ! Layer 1
  {84b17e1e-a838-41ba-adb9-a48d6a5e30c2}, ! Layer 2
  {f2c3beca-a67d-4341-b5ec-4477cf9f83cf}; ! Layer 3

OS:Material,
  {6d8206ab-88c9-4289-af7d-ebf0647c88f8}, ! Handle
  Metal Siding,                           ! Name
  Smooth,                                 ! Roughness
  0.0015,                                 ! Thickness {m}
  44.96,                                  ! Conductivity {W/m-K}
  7688.86,                                ! Density {kg/m3}
  410,                                    ! Specific Heat {J/kg-K}
  0.9,                                    ! Thermal Absorptance
  0.2,                                    ! Solar Absorptance
  0.2;                                    ! Visible Absorptance

OS:Material,
  {84b17e1e-a838-41ba-adb9-a48d6a5e30c2}, ! Handle
  Wall Insulation [159],                  ! Name
  MediumRough,                            ! Roughness
  0.0812,                                 ! Thickness {m}
  0.045,                                  ! Conductivity {W/m-K}
  265,                                    ! Density {kg/m3}
  836.8,                                  ! Specific Heat {J/kg-K}
  0.9,                                    ! Thermal Absorptance
  0.7,                                    ! Solar Absorptance
  0.7;                                    ! Visible Absorptance

