
OS:Version,
  {4db07892-bf46-4c42-a252-03c509d241ec}, ! Handle
  0.9.3;                                  ! Version Identifier

OS:Construction,
  {08ce6682-9a31-490f-b591-ecf1f486f12b}, ! Handle
  90.1-1999 Nonres B9 Ext Slab Unheated - 8in Slab without Carpet, ! Name
  ,                                       ! Surface Rendering Name
  {405ef5c0-3368-44a6-ace0-494f73949020}; ! Layer 1

OS:Material,
  {405ef5c0-3368-44a6-ace0-494f73949020}, ! Handle
  MAT-CC05 8 HW CONCRETE,                 ! Name
  Rough,                                  ! Roughness
  0.20321,                                ! Thickness {m}
  1.311,                                  ! Conductivity {W/m-K}
  2240,                                   ! Density {kg/m3}
  836.8,                                  ! Specific Heat {J/kg-K}
  0.9,                                    ! Thermal Absorptance
  0.7,                                    ! Solar Absorptance
  0.7;                                    ! Visible Absorptance

OS:ComponentCost:LineItem,
  {b1be68ba-15f4-4e34-b061-02130c937476}, ! Handle
  90.1-1999 Nonres B9 Ext Slab Unheated - 8in Slab without Carpet, ! Name
  ,                                       ! Type
  Construction,                           ! Line Item Type
  90.1-1999 Nonres B9 Ext Slab Unheated - 8in Slab without Carpet, ! Item Name
  ,                                       ! Object End Use Key
  ,                                       ! Quantity {dimensionless}
  45.52,                                  ! Material Cost {$}
  CostPerArea;                            ! Material Cost Units

