
! 
OS:Version,
  {9c37d538-db0d-4a47-9850-5bede7e76bd5}, !- Handle
  1.13.0;                                 !- Version Identifier


! {"nombreProductoCorto": "CLIMALIT PLUS con COOL LITE XTREME 50/22 F2 6 (16 argon90%) 44.2", "codigoEAN": "", "handle": "027ac5ff-aa7c-46b7-9e14-d816035c571e", "g": 0.22, "tV": 0.49, "u": 1.0, "nombreProducto": "CLIMALIT PLUS con COOL LITE XTREME 50/22 F2 6 (16 argon90%) 44.2\nU:1.0 W/m2K - g:0.22 - Tv: 0.49"}
OS:WindowMaterial:SimpleGlazingSystem,
  {027ac5ff-aa7c-46b7-9e14-d816035c571e}, !- Handle
  CLIMALIT PLUS con COOL LITE XTREME 50/22 F2 6 (16 argon90%) 44.2, !- Name
  1.0,                                    !- U-Factor {W/m2-K}
  0.22,                                    !- Solar Heat Gain Coefficient
  0.49;                                    !- Visible Transmittance     
  
  
OS:Construction,
  {41f23243-6da9-49ba-9440-0278d1480760}, !- Handle
  CLIMALIT PLUS con COOL LITE XTREME 50/22 F2 6 (16 argon90%) 44.2,                         !- Name
  ,                                       !- Surface Rendering Name
  {027ac5ff-aa7c-46b7-9e14-d816035c571e}; !- Layer 1  

