
OS:Version,
  {8472026c-762e-4404-945d-edffd23f46c4}, ! Handle
  0.9.3;                                  ! Version Identifier

OS:Construction,
  {e9d12b45-fa2f-4b46-a6a1-19bf92a33d34}, ! Handle
  90.1-2007 Res 7A Skylight without Curb, ! Name
  ,                                       ! Surface Rendering Name
  {37d49c94-6f46-469b-90c1-636c068196d1}; ! Layer 1

OS:WindowMaterial:Glazing,
  {37d49c94-6f46-469b-90c1-636c068196d1}, ! Handle
  Theoretical Glass [166],                ! Name
  SpectralAverage,                        ! Optical Data Type
  ,                                       ! Window Glass Spectral Data Set Name
  0.003,                                  ! Thickness {m}
  0.630903,                               ! Solar Transmittance at Normal Incidence
  0.319097,                               ! Front Side Solar Reflectance at Normal Incidence
  0.319097,                               ! Back Side Solar Reflectance at Normal Incidence
  0.639644,                               ! Visible Transmittance at Normal Incidence
  0.310356,                               ! Front Side Visible Reflectance at Normal Incidence
  0.310356,                               ! Back Side Visible Reflectance at Normal Incidence
  0,                                      ! Infrared Transmittance at Normal Incidence
  0.9,                                    ! Front Side Infrared Hemispherical Emissivity
  0.9,                                    ! Back Side Infrared Hemispherical Emissivity
  0.03026;                                ! Conductivity {W/m-K}

OS:ComponentCost:LineItem,
  {3644d8f5-b751-462b-95d7-2eb8654c21cc}, ! Handle
  90.1-2007 Res 7A Skylight without Curb, ! Name
  ,                                       ! Type
  Construction,                           ! Line Item Type
  90.1-2007 Res 7A Skylight without Curb, ! Item Name
  ,                                       ! Object End Use Key
  ,                                       ! Quantity {dimensionless}
  439.606,                                ! Material Cost {$}
  CostPerArea;                            ! Material Cost Units

