
OS:Version,
  {5447c845-6244-40f0-b07b-fd7d84be5e06}, !- Handle
  1.1.0;                                  !- Version Identifier

OS:Construction,
  {7cbdc37d-17d0-403d-842d-4be36d638c38}, !- Handle
  Dbl Blue 6mm/6mm Air,                   !- Name
  ,                                       !- Surface Rendering Name
  {0e2e1e84-c655-46ed-beb0-c0a9fca0da48}, !- Layer 1
  {b0c911ab-dde7-484e-af54-df4bf55386c6}, !- Layer 2
  {c07d29ef-5b2a-45db-b568-8f0eb2fbaf44}; !- Layer 3

OS:WindowMaterial:Glazing,
  {0e2e1e84-c655-46ed-beb0-c0a9fca0da48}, !- Handle
  BLUE 6MM,                               !- Name
  SpectralAverage,                        !- Optical Data Type
  ,                                       !- Window Glass Spectral Data Set Name
  0.006,                                  !- Thickness {m}
  0.48,                                   !- Solar Transmittance at Normal Incidence
  0.05,                                   !- Front Side Solar Reflectance at Normal Incidence
  0.05,                                   !- Back Side Solar Reflectance at Normal Incidence
  0.57,                                   !- Visible Transmittance at Normal Incidence
  0.06,                                   !- Front Side Visible Reflectance at Normal Incidence
  0.06,                                   !- Back Side Visible Reflectance at Normal Incidence
  0,                                      !- Infrared Transmittance at Normal Incidence
  0.84,                                   !- Front Side Infrared Hemispherical Emissivity
  0.84,                                   !- Back Side Infrared Hemispherical Emissivity
  0.9;                                    !- Conductivity {W/m-K}

OS:WindowMaterial:Gas,
  {b0c911ab-dde7-484e-af54-df4bf55386c6}, !- Handle
  AIR 6MM,                                !- Name
  Air,                                    !- Gas Type
  0.0063;                                 !- Thickness {m}

OS:WindowMaterial:Glazing,
  {c07d29ef-5b2a-45db-b568-8f0eb2fbaf44}, !- Handle
  CLEAR 6MM,                              !- Name
  SpectralAverage,                        !- Optical Data Type
  ,                                       !- Window Glass Spectral Data Set Name
  0.006,                                  !- Thickness {m}
  0.775,                                  !- Solar Transmittance at Normal Incidence
  0.071,                                  !- Front Side Solar Reflectance at Normal Incidence
  0.071,                                  !- Back Side Solar Reflectance at Normal Incidence
  0.881,                                  !- Visible Transmittance at Normal Incidence
  0.08,                                   !- Front Side Visible Reflectance at Normal Incidence
  0.08,                                   !- Back Side Visible Reflectance at Normal Incidence
  0,                                      !- Infrared Transmittance at Normal Incidence
  0.84,                                   !- Front Side Infrared Hemispherical Emissivity
  0.84,                                   !- Back Side Infrared Hemispherical Emissivity
  0.9;                                    !- Conductivity {W/m-K}

