
OS:Version,
  {8194c543-df50-463f-a67b-278372329a22}, ! Handle
  0.9.3;                                  ! Version Identifier

OS:Material,
  {a6a8c35b-0ee4-46bd-830c-ed44b5af648d}, ! Handle
  MAT-CC05 8 HW CONCRETE,                 ! Name
  Rough,                                  ! Roughness
  0.20321,                                ! Thickness {m}
  1.311,                                  ! Conductivity {W/m-K}
  2240,                                   ! Density {kg/m3}
  836.8,                                  ! Specific Heat {J/kg-K}
  0.9,                                    ! Thermal Absorptance
  0.7,                                    ! Solar Absorptance
  0.7;                                    ! Visible Absorptance

OS:ComponentCost:LineItem,
  {c208c76e-e290-4044-a043-9fb1132a6b8e}, ! Handle
  90.1-1999 Nonres B5 Ext Slab Unheated - 8in Slab with Carpet, ! Name
  ,                                       ! Type
  Construction,                           ! Line Item Type
  90.1-1999 Nonres B5 Ext Slab Unheated - 8in Slab with Carpet, ! Item Name
  ,                                       ! Object End Use Key
  ,                                       ! Quantity {dimensionless}
  45.52,                                  ! Material Cost {$}
  CostPerArea;                            ! Material Cost Units

OS:Construction,
  {a0d82094-0b79-4f48-a092-a69e0a32482d}, ! Handle
  90.1-1999 Nonres B5 Ext Slab Unheated - 8in Slab with Carpet, ! Name
  ,                                       ! Surface Rendering Name
  {a6a8c35b-0ee4-46bd-830c-ed44b5af648d}, ! Layer 1
  {0609e15b-4e4b-4fbd-8bf2-00f06439d1cc}; ! Layer 2

OS:Material:NoMass,
  {0609e15b-4e4b-4fbd-8bf2-00f06439d1cc}, ! Handle
  CP02 CARPET PAD,                        ! Name
  VeryRough,                              ! Roughness
  0.21648,                                ! Thermal Resistance {m2-K/W}
  0.9,                                    ! Thermal Absorptance
  0.7,                                    ! Solar Absorptance
  0.8;                                    ! Visible Absorptance

