
OS:Version,
  {c5806ba2-15b2-4111-88a7-c39c51104068}, ! Handle
  0.9.3;                                  ! Version Identifier

OS:Construction,
  {738667fd-bc0f-425a-8f13-9c8d963621df}, ! Handle
  90.1-2001 Res B18 Ext Slab Unheated - 4in Slab with Carpet, ! Name
  ,                                       ! Surface Rendering Name
  {8ec47e4b-ea4e-4efd-8c61-3740696a9df2}, ! Layer 1
  {3bd7b480-b5ff-4a81-b0a3-4d72164ca219}; ! Layer 2

OS:Material,
  {8ec47e4b-ea4e-4efd-8c61-3740696a9df2}, ! Handle
  MAT-CC05 4 HW CONCRETE,                 ! Name
  Rough,                                  ! Roughness
  0.1016,                                 ! Thickness {m}
  1.311,                                  ! Conductivity {W/m-K}
  2240,                                   ! Density {kg/m3}
  836.8,                                  ! Specific Heat {J/kg-K}
  0.9,                                    ! Thermal Absorptance
  0.7,                                    ! Solar Absorptance
  0.7;                                    ! Visible Absorptance

OS:Material:NoMass,
  {3bd7b480-b5ff-4a81-b0a3-4d72164ca219}, ! Handle
  CP02 CARPET PAD,                        ! Name
  VeryRough,                              ! Roughness
  0.21648,                                ! Thermal Resistance {m2-K/W}
  0.9,                                    ! Thermal Absorptance
  0.7,                                    ! Solar Absorptance
  0.8;                                    ! Visible Absorptance

OS:ComponentCost:LineItem,
  {07a5d9a8-3b93-4c41-9c72-fe494d6569a7}, ! Handle
  90.1-2001 Res B18 Ext Slab Unheated - 4in Slab with Carpet, ! Name
  ,                                       ! Type
  Construction,                           ! Line Item Type
  90.1-2001 Res B18 Ext Slab Unheated - 4in Slab with Carpet, ! Item Name
  ,                                       ! Object End Use Key
  ,                                       ! Quantity {dimensionless}
  45.52,                                  ! Material Cost {$}
  CostPerArea;                            ! Material Cost Units

OS:ComponentData,
  {21afe905-0ba1-417c-af24-d6f4943a2a6e}, ! Handle
  Component Data 1,                       ! Name
  {882f9321-9d59-4425-9d25-9473cfbc3a6e}, ! UUID
  {e86e08f2-971b-4139-8874-f02287ba35bd}, ! Version UUID
  1363981560,                             ! Creation Timestamp
  1363981560,                             ! Version Timestamp
  {738667fd-bc0f-425a-8f13-9c8d963621df}, ! Name of Object 1
  {8ec47e4b-ea4e-4efd-8c61-3740696a9df2}, ! Name of Object 2
  {3bd7b480-b5ff-4a81-b0a3-4d72164ca219}, ! Name of Object 3
  {07a5d9a8-3b93-4c41-9c72-fe494d6569a7}; ! Name of Object 4

