
OS:Version,
  {418586dc-18f2-4bfb-b983-99cc124c5742}, ! Handle
  0.9.3;                                  ! Version Identifier

OS:Construction,
  {ac069c83-3cbf-44b2-b549-307bcd9a2c26}, ! Handle
  90.1 Windows Window Fixed 2124 Mtl-ClrMpr-Std-ClrPye, ! Name
  ,                                       ! Surface Rendering Name
  {768cc5e3-add2-4a2a-beb1-98b623ba20e1}; ! Layer 1

OS:WindowMaterial:Glazing,
  {768cc5e3-add2-4a2a-beb1-98b623ba20e1}, ! Handle
  Theoretical Glass [308],                ! Name
  SpectralAverage,                        ! Optical Data Type
  ,                                       ! Window Glass Spectral Data Set Name
  0.003,                                  ! Thickness {m}
  0.472136,                               ! Solar Transmittance at Normal Incidence
  0.477864,                               ! Front Side Solar Reflectance at Normal Incidence
  0.477864,                               ! Back Side Solar Reflectance at Normal Incidence
  0.400004,                               ! Visible Transmittance at Normal Incidence
  0.549996,                               ! Front Side Visible Reflectance at Normal Incidence
  0.549996,                               ! Back Side Visible Reflectance at Normal Incidence
  0,                                      ! Infrared Transmittance at Normal Incidence
  0.9,                                    ! Front Side Infrared Hemispherical Emissivity
  0.9,                                    ! Back Side Infrared Hemispherical Emissivity
  0.0220475;                              ! Conductivity {W/m-K}

OS:ComponentCost:LineItem,
  {86a2b6cf-363b-425c-ba86-822eab2cf146}, ! Handle
  90.1 Windows Window Fixed 2124 Mtl-ClrMpr-Std-ClrPye, ! Name
  ,                                       ! Type
  Construction,                           ! Line Item Type
  90.1 Windows Window Fixed 2124 Mtl-ClrMpr-Std-ClrPye, ! Item Name
  ,                                       ! Object End Use Key
  ,                                       ! Quantity {dimensionless}
  0,                                      ! Material Cost {$}
  CostPerArea;                            ! Material Cost Units

