
OS:Version,
  {3c65aa35-d6c1-424d-9c59-a8016f7e68a6}, ! Handle
  0.9.3;                                  ! Version Identifier

OS:Construction,
  {37dc994e-2f0f-4c55-95a5-490809c350c9}, ! Handle
  90.1 Windows Window Fixed 2124 Mtl-ClrMpr-Std-ClrPye, ! Name
  ,                                       ! Surface Rendering Name
  {1adb8ffb-97f1-4e63-bc57-2a8b8dc6f863}; ! Layer 1

OS:WindowMaterial:Glazing,
  {1adb8ffb-97f1-4e63-bc57-2a8b8dc6f863}, ! Handle
  Theoretical Glass [308],                ! Name
  SpectralAverage,                        ! Optical Data Type
  ,                                       ! Window Glass Spectral Data Set Name
  0.003,                                  ! Thickness {m}
  0.472136,                               ! Solar Transmittance at Normal Incidence
  0.477864,                               ! Front Side Solar Reflectance at Normal Incidence
  0.477864,                               ! Back Side Solar Reflectance at Normal Incidence
  0.400004,                               ! Visible Transmittance at Normal Incidence
  0.549996,                               ! Front Side Visible Reflectance at Normal Incidence
  0.549996,                               ! Back Side Visible Reflectance at Normal Incidence
  0,                                      ! Infrared Transmittance at Normal Incidence
  0.9,                                    ! Front Side Infrared Hemispherical Emissivity
  0.9,                                    ! Back Side Infrared Hemispherical Emissivity
  0.0220475;                              ! Conductivity {W/m-K}

OS:ComponentCost:LineItem,
  {ad17d104-e44e-4dec-bba1-488903c90d87}, ! Handle
  90.1 Windows Window Fixed 2124 Mtl-ClrMpr-Std-ClrPye, ! Name
  ,                                       ! Type
  Construction,                           ! Line Item Type
  90.1 Windows Window Fixed 2124 Mtl-ClrMpr-Std-ClrPye, ! Item Name
  ,                                       ! Object End Use Key
  ,                                       ! Quantity {dimensionless}
  0,                                      ! Material Cost {$}
  CostPerArea;                            ! Material Cost Units

OS:ComponentData,
  {94d566cd-8021-4a33-8110-cde0dcdcab77}, ! Handle
  Component Data 1,                       ! Name
  {fae2bccf-d92d-43f6-b005-09208769d788}, ! UUID
  {a961bb29-57a9-4957-9ab9-8518f3079e57}, ! Version UUID
  1363981006,                             ! Creation Timestamp
  1363981006,                             ! Version Timestamp
  {37dc994e-2f0f-4c55-95a5-490809c350c9}, ! Name of Object 1
  {1adb8ffb-97f1-4e63-bc57-2a8b8dc6f863}, ! Name of Object 2
  {ad17d104-e44e-4dec-bba1-488903c90d87}; ! Name of Object 3

