
! 
OS:Version,
  {9c37d538-db0d-4a47-9850-5bede7e76bd5}, !- Handle
  1.13.0;                                 !- Version Identifier


! {"nombreProductoCorto": "CLIMALIT PLUS con PLANITHERM PLANISTAR ONE F2 6 (16 argon90%) 44.2", "codigoEAN": "", "handle": "f2aeea40-3a5c-4c56-882f-6bf44a933dcb", "g": 0.37, "tV": 0.7, "u": 1.0, "nombreProducto": "CLIMALIT PLUS con PLANITHERM PLANISTAR ONE F2 6 (16 argon90%) 44.2\nU:1.0 W/m2K - g:0.37 - Tv: 0.70"}
OS:WindowMaterial:SimpleGlazingSystem,
  {f2aeea40-3a5c-4c56-882f-6bf44a933dcb}, !- Handle
  CLIMALIT PLUS con PLANITHERM PLANISTAR ONE F2 6 (16 argon90%) 44.2, !- Name
  1.0,                                    !- U-Factor {W/m2-K}
  0.37,                                    !- Solar Heat Gain Coefficient
  0.7;                                    !- Visible Transmittance     
  
  
OS:Construction,
  {575d9310-c988-41a8-a0c4-8f256dbfb4ee}, !- Handle
  CLIMALIT PLUS con PLANITHERM PLANISTAR ONE F2 6 (16 argon90%) 44.2,                         !- Name
  ,                                       !- Surface Rendering Name
  {f2aeea40-3a5c-4c56-882f-6bf44a933dcb}; !- Layer 1  

