
OS:Version,
  {abdbffd6-859d-4d4c-bca5-96144f30ff61}, ! Handle
  0.9.3;                                  ! Version Identifier

OS:Construction,
  {1a964a0d-ab57-4a87-a54f-2d02b443c4e3}, ! Handle
  189.1-2009 Nonres 3A Window Metal framing curtainwall-storefront, ! Name
  ,                                       ! Surface Rendering Name
  {37a96b20-0aa6-4e8b-800f-8a86e3a1f8e7}; ! Layer 1

OS:WindowMaterial:Glazing,
  {37a96b20-0aa6-4e8b-800f-8a86e3a1f8e7}, ! Handle
  Theoretical Glass [200],                ! Name
  SpectralAverage,                        ! Optical Data Type
  ,                                       ! Window Glass Spectral Data Set Name
  0.003,                                  ! Thickness {m}
  0.232305,                               ! Solar Transmittance at Normal Incidence
  0.717695,                               ! Front Side Solar Reflectance at Normal Incidence
  0.717695,                               ! Back Side Solar Reflectance at Normal Incidence
  0.319199,                               ! Visible Transmittance at Normal Incidence
  0.630801,                               ! Front Side Visible Reflectance at Normal Incidence
  0.630801,                               ! Back Side Visible Reflectance at Normal Incidence
  0,                                      ! Infrared Transmittance at Normal Incidence
  0.9,                                    ! Front Side Infrared Hemispherical Emissivity
  0.9,                                    ! Back Side Infrared Hemispherical Emissivity
  0.0160076;                              ! Conductivity {W/m-K}

OS:ComponentCost:LineItem,
  {909870dd-47f6-4a5e-a8f3-fef51b814319}, ! Handle
  189.1-2009 Nonres 3A Window Metal framing curtainwall-storefront, ! Name
  ,                                       ! Type
  Construction,                           ! Line Item Type
  189.1-2009 Nonres 3A Window Metal framing curtainwall-storefront, ! Item Name
  ,                                       ! Object End Use Key
  ,                                       ! Quantity {dimensionless}
  577.118,                                ! Material Cost {$}
  CostPerArea;                            ! Material Cost Units

