
OS:Version,
  {e7c927e3-4774-4ea6-8633-906af902e1a8}, ! Handle
  0.9.3;                                  ! Version Identifier

OS:Construction,
  {c55b0977-30b0-41ea-ae3f-ead14429278e}, ! Handle
  189.1-2009 Nonres 3A Window Metal framing curtainwall-storefront, ! Name
  ,                                       ! Surface Rendering Name
  {e42695f7-bc49-4fca-921b-f72eb4cd6d94}; ! Layer 1

OS:WindowMaterial:Glazing,
  {e42695f7-bc49-4fca-921b-f72eb4cd6d94}, ! Handle
  Theoretical Glass [200],                ! Name
  SpectralAverage,                        ! Optical Data Type
  ,                                       ! Window Glass Spectral Data Set Name
  0.003,                                  ! Thickness {m}
  0.232305,                               ! Solar Transmittance at Normal Incidence
  0.717695,                               ! Front Side Solar Reflectance at Normal Incidence
  0.717695,                               ! Back Side Solar Reflectance at Normal Incidence
  0.319199,                               ! Visible Transmittance at Normal Incidence
  0.630801,                               ! Front Side Visible Reflectance at Normal Incidence
  0.630801,                               ! Back Side Visible Reflectance at Normal Incidence
  0,                                      ! Infrared Transmittance at Normal Incidence
  0.9,                                    ! Front Side Infrared Hemispherical Emissivity
  0.9,                                    ! Back Side Infrared Hemispherical Emissivity
  0.0160076;                              ! Conductivity {W/m-K}

OS:ComponentCost:LineItem,
  {072bccd8-feb2-4c35-b721-9198da884f14}, ! Handle
  189.1-2009 Nonres 3A Window Metal framing curtainwall-storefront, ! Name
  ,                                       ! Type
  Construction,                           ! Line Item Type
  189.1-2009 Nonres 3A Window Metal framing curtainwall-storefront, ! Item Name
  ,                                       ! Object End Use Key
  ,                                       ! Quantity {dimensionless}
  577.118,                                ! Material Cost {$}
  CostPerArea;                            ! Material Cost Units

OS:ComponentData,
  {bba7b17e-cd82-40bb-9595-48700bad6173}, ! Handle
  Component Data 1,                       ! Name
  {22ae7a3c-2f25-4dc1-96e7-625e1f0534a6}, ! UUID
  {2641924d-d6d7-4eb6-a9b3-b4fbc22cb1e8}, ! Version UUID
  1363980937,                             ! Creation Timestamp
  1363980937,                             ! Version Timestamp
  {c55b0977-30b0-41ea-ae3f-ead14429278e}, ! Name of Object 1
  {e42695f7-bc49-4fca-921b-f72eb4cd6d94}, ! Name of Object 2
  {072bccd8-feb2-4c35-b721-9198da884f14}; ! Name of Object 3

