
OS:Version,
  {c6a4c8c6-9408-4ada-a321-eea74b1ca710}, ! Handle
  0.9.3;                                  ! Version Identifier

OS:Material,
  {361c81cc-9763-41ea-bacf-60489f5452c0}, ! Handle
  1/2IN Gypsum Bottom,                    ! Name
  Smooth,                                 ! Roughness
  0.01271,                                ! Thickness {m}
  0.16,                                   ! Conductivity {W/m-K}
  784.9,                                  ! Density {kg/m3}
  830,                                    ! Specific Heat {J/kg-K}
  0.9,                                    ! Thermal Absorptance
  0.92,                                   ! Solar Absorptance
  0.92;                                   ! Visible Absorptance

OS:Construction,
  {ff342a68-29d7-409e-a6bc-87c869972e31}, ! Handle
  90.1-2004 Res 3C Attic Floor,           ! Name
  ,                                       ! Surface Rendering Name
  {eaddf33a-4de8-43ee-a184-d56aeaa56f61}, ! Layer 1
  {cac5c49e-1c64-4afb-8b2e-03e20c8c694e}, ! Layer 2
  {361c81cc-9763-41ea-bacf-60489f5452c0}; ! Layer 3

OS:Material,
  {eaddf33a-4de8-43ee-a184-d56aeaa56f61}, ! Handle
  1/2IN Gypsum Top,                       ! Name
  Smooth,                                 ! Roughness
  0.01271,                                ! Thickness {m}
  0.16,                                   ! Conductivity {W/m-K}
  784.9,                                  ! Density {kg/m3}
  830,                                    ! Specific Heat {J/kg-K}
  0.9,                                    ! Thermal Absorptance
  0.92,                                   ! Solar Absorptance
  0.92;                                   ! Visible Absorptance

OS:Material,
  {cac5c49e-1c64-4afb-8b2e-03e20c8c694e}, ! Handle
  AtticFloor Insulation [1],              ! Name
  MediumRough,                            ! Roughness
  0.303719,                               ! Thickness {m}
  0.049,                                  ! Conductivity {W/m-K}
  265,                                    ! Density {kg/m3}
  836.8,                                  ! Specific Heat {J/kg-K}
  0.9,                                    ! Thermal Absorptance
  0.7,                                    ! Solar Absorptance
  0.7;                                    ! Visible Absorptance

OS:ComponentCost:LineItem,
  {c62aec0c-28bf-409c-9a84-9498cabb043a}, ! Handle
  90.1-2004 Res 3C Attic Floor,           ! Name
  ,                                       ! Type
  Construction,                           ! Line Item Type
  90.1-2004 Res 3C Attic Floor,           ! Item Name
  ,                                       ! Object End Use Key
  ,                                       ! Quantity {dimensionless}
  35.009,                                 ! Material Cost {$}
  CostPerArea;                            ! Material Cost Units

