
OS:Version,
  {60490b95-10ee-4624-ad1d-373d01af5b63}, ! Handle
  0.9.3;                                  ! Version Identifier

OS:Construction,
  {9f895d16-ab6b-4921-b88c-dcba7741895c}, ! Handle
  90.1-2004 Res 3C Attic Floor,           ! Name
  ,                                       ! Surface Rendering Name
  {5cb17317-7ef4-48ca-a461-09d41275403c}, ! Layer 1
  {defc757c-1e06-4a31-b36f-d473b01b5ac4}, ! Layer 2
  {ab72113c-16f0-43c3-aafc-f9d7d6aa3539}; ! Layer 3

OS:Material,
  {5cb17317-7ef4-48ca-a461-09d41275403c}, ! Handle
  1/2IN Gypsum Top,                       ! Name
  Smooth,                                 ! Roughness
  0.01271,                                ! Thickness {m}
  0.16,                                   ! Conductivity {W/m-K}
  784.9,                                  ! Density {kg/m3}
  830,                                    ! Specific Heat {J/kg-K}
  0.9,                                    ! Thermal Absorptance
  0.92,                                   ! Solar Absorptance
  0.92;                                   ! Visible Absorptance

OS:Material,
  {defc757c-1e06-4a31-b36f-d473b01b5ac4}, ! Handle
  AtticFloor Insulation [1],              ! Name
  MediumRough,                            ! Roughness
  0.303719,                               ! Thickness {m}
  0.049,                                  ! Conductivity {W/m-K}
  265,                                    ! Density {kg/m3}
  836.8,                                  ! Specific Heat {J/kg-K}
  0.9,                                    ! Thermal Absorptance
  0.7,                                    ! Solar Absorptance
  0.7;                                    ! Visible Absorptance

OS:Material,
  {ab72113c-16f0-43c3-aafc-f9d7d6aa3539}, ! Handle
  1/2IN Gypsum Bottom,                    ! Name
  Smooth,                                 ! Roughness
  0.01271,                                ! Thickness {m}
  0.16,                                   ! Conductivity {W/m-K}
  784.9,                                  ! Density {kg/m3}
  830,                                    ! Specific Heat {J/kg-K}
  0.9,                                    ! Thermal Absorptance
  0.92,                                   ! Solar Absorptance
  0.92;                                   ! Visible Absorptance

OS:ComponentCost:LineItem,
  {35fba150-1185-46f4-93d9-4f5e434fd5a1}, ! Handle
  90.1-2004 Res 3C Attic Floor,           ! Name
  ,                                       ! Type
  Construction,                           ! Line Item Type
  90.1-2004 Res 3C Attic Floor,           ! Item Name
  ,                                       ! Object End Use Key
  ,                                       ! Quantity {dimensionless}
  35.009,                                 ! Material Cost {$}
  CostPerArea;                            ! Material Cost Units

OS:ComponentData,
  {50a86f1e-63ab-4e94-8f20-57f75b0a0b17}, ! Handle
  Component Data 1,                       ! Name
  {60bdac29-ad15-42e3-b230-038ff387de61}, ! UUID
  {b4c052bf-3505-477d-a6bd-0cb6ae98866b}, ! Version UUID
  1363981730,                             ! Creation Timestamp
  1363981730,                             ! Version Timestamp
  {9f895d16-ab6b-4921-b88c-dcba7741895c}, ! Name of Object 1
  {5cb17317-7ef4-48ca-a461-09d41275403c}, ! Name of Object 2
  {defc757c-1e06-4a31-b36f-d473b01b5ac4}, ! Name of Object 3
  {ab72113c-16f0-43c3-aafc-f9d7d6aa3539}, ! Name of Object 4
  {35fba150-1185-46f4-93d9-4f5e434fd5a1}; ! Name of Object 5

