
OS:Version,
  {4c23911a-2588-4c02-9c04-2bfc77f04c45}, ! Handle
  0.9.3;                                  ! Version Identifier

OS:Construction,
  {e2d08957-87c7-472e-944f-7b9274995078}, ! Handle
  90.1 Windows Window Fixed 2517 Vnl-ClrSbe-Std-Clr, ! Name
  ,                                       ! Surface Rendering Name
  {d74b5811-1155-4b12-9c1c-9cfd9f590f34}; ! Layer 1

OS:WindowMaterial:Glazing,
  {d74b5811-1155-4b12-9c1c-9cfd9f590f34}, ! Handle
  Theoretical Glass [398],                ! Name
  SpectralAverage,                        ! Optical Data Type
  ,                                       ! Window Glass Spectral Data Set Name
  0.003,                                  ! Thickness {m}
  0.355367,                               ! Solar Transmittance at Normal Incidence
  0.594633,                               ! Front Side Solar Reflectance at Normal Incidence
  0.594633,                               ! Back Side Solar Reflectance at Normal Incidence
  0.429741,                               ! Visible Transmittance at Normal Incidence
  0.520259,                               ! Front Side Visible Reflectance at Normal Incidence
  0.520259,                               ! Back Side Visible Reflectance at Normal Incidence
  0,                                      ! Infrared Transmittance at Normal Incidence
  0.9,                                    ! Front Side Infrared Hemispherical Emissivity
  0.9,                                    ! Back Side Infrared Hemispherical Emissivity
  0.00956511;                             ! Conductivity {W/m-K}

OS:ComponentCost:LineItem,
  {9f355d68-9c83-4e97-b1e2-d0c0af05a12c}, ! Handle
  90.1 Windows Window Fixed 2517 Vnl-ClrSbe-Std-Clr, ! Name
  ,                                       ! Type
  Construction,                           ! Line Item Type
  90.1 Windows Window Fixed 2517 Vnl-ClrSbe-Std-Clr, ! Item Name
  ,                                       ! Object End Use Key
  ,                                       ! Quantity {dimensionless}
  0,                                      ! Material Cost {$}
  CostPerArea;                            ! Material Cost Units

OS:ComponentData,
  {8825559d-68dd-4698-bb11-23e92bb683d6}, ! Handle
  Component Data 1,                       ! Name
  {4e7e3425-340d-471c-9c07-593d99a77d4a}, ! UUID
  {80b6e136-bc48-4123-af29-4abe241cb438}, ! Version UUID
  1363981014,                             ! Creation Timestamp
  1363981014,                             ! Version Timestamp
  {e2d08957-87c7-472e-944f-7b9274995078}, ! Name of Object 1
  {d74b5811-1155-4b12-9c1c-9cfd9f590f34}, ! Name of Object 2
  {9f355d68-9c83-4e97-b1e2-d0c0af05a12c}; ! Name of Object 3

