
OS:Version,
  {d4c8baef-bb4f-426e-8da3-1b2bcfcd2233}, ! Handle
  0.9.3;                                  ! Version Identifier

OS:Construction,
  {09772be6-c9f0-4aac-a5a4-2ac45d40d5a1}, ! Handle
  90.1-2004 Res 6B Roof Attic and Other,  ! Name
  ,                                       ! Surface Rendering Name
  {685ff9cd-06ba-4fa0-bdde-5ec6d1348702}, ! Layer 1
  {7032e9b4-d509-44a7-b868-dfed6df72def}, ! Layer 2
  {fc0573e6-6129-434a-8fd4-f7f559a002cc}, ! Layer 3
  {0d460f49-ff05-4bf4-bbd0-b8b36e072b10}; ! Layer 4

OS:Material,
  {685ff9cd-06ba-4fa0-bdde-5ec6d1348702}, ! Handle
  Wood Shingles,                          ! Name
  VeryRough,                              ! Roughness
  0.0178,                                 ! Thickness {m}
  0.115,                                  ! Conductivity {W/m-K}
  513,                                    ! Density {kg/m3}
  1255,                                   ! Specific Heat {J/kg-K}
  0.9,                                    ! Thermal Absorptance
  0.78,                                   ! Solar Absorptance
  0.78;                                   ! Visible Absorptance

OS:Material,
  {7032e9b4-d509-44a7-b868-dfed6df72def}, ! Handle
  1IN Wood Decking,                       ! Name
  MediumSmooth,                           ! Roughness
  0.0254,                                 ! Thickness {m}
  0.1211,                                 ! Conductivity {W/m-K}
  593,                                    ! Density {kg/m3}
  2510,                                   ! Specific Heat {J/kg-K}
  0.9,                                    ! Thermal Absorptance
  0.78,                                   ! Solar Absorptance
  0.78;                                   ! Visible Absorptance

OS:Material,
  {fc0573e6-6129-434a-8fd4-f7f559a002cc}, ! Handle
  Roof Insulation [5],                    ! Name
  MediumRough,                            ! Roughness
  0.286906,                               ! Thickness {m}
  0.049,                                  ! Conductivity {W/m-K}
  265,                                    ! Density {kg/m3}
  836.8,                                  ! Specific Heat {J/kg-K}
  0.9,                                    ! Thermal Absorptance
  0.7,                                    ! Solar Absorptance
  0.7;                                    ! Visible Absorptance

OS:Material,
  {0d460f49-ff05-4bf4-bbd0-b8b36e072b10}, ! Handle
  1/2IN Gypsum,                           ! Name
  Smooth,                                 ! Roughness
  0.01271,                                ! Thickness {m}
  0.16,                                   ! Conductivity {W/m-K}
  784.9,                                  ! Density {kg/m3}
  830,                                    ! Specific Heat {J/kg-K}
  0.9,                                    ! Thermal Absorptance
  0.92,                                   ! Solar Absorptance
  0.92;                                   ! Visible Absorptance

OS:ComponentCost:LineItem,
  {0e8ec054-ecfd-4dd0-a83a-be3f35599d4d}, ! Handle
  90.1-2004 Res 6B Roof Attic and Other,  ! Name
  ,                                       ! Type
  Construction,                           ! Line Item Type
  90.1-2004 Res 6B Roof Attic and Other,  ! Item Name
  ,                                       ! Object End Use Key
  ,                                       ! Quantity {dimensionless}
  34.757,                                 ! Material Cost {$}
  CostPerArea;                            ! Material Cost Units

