
OS:Version,
  {7ed9e0af-83ea-4fbb-b043-98c84adf18f7}, ! Handle
  0.9.3;                                  ! Version Identifier

OS:Construction,
  {5071adcd-3685-40a2-a66b-804b8f12a5e7}, ! Handle
  90.1-2004 Res 7A Int Wall,              ! Name
  ,                                       ! Surface Rendering Name
  {a9a015a8-6e9c-4964-8127-24710be2d00d}, ! Layer 1
  {a9a015a8-6e9c-4964-8127-24710be2d00d}; ! Layer 2

OS:Material,
  {a9a015a8-6e9c-4964-8127-24710be2d00d}, ! Handle
  GP01 1/2 GYPSUM,                        ! Name
  Smooth,                                 ! Roughness
  0.01271,                                ! Thickness {m}
  0.16,                                   ! Conductivity {W/m-K}
  800,                                    ! Density {kg/m3}
  1090,                                   ! Specific Heat {J/kg-K}
  0.9,                                    ! Thermal Absorptance
  0.7,                                    ! Solar Absorptance
  0.5;                                    ! Visible Absorptance

OS:ComponentCost:LineItem,
  {77ce0dae-c814-4dff-87a3-00620a784a87}, ! Handle
  90.1-2004 Res 7A Int Wall,              ! Name
  ,                                       ! Type
  Construction,                           ! Line Item Type
  90.1-2004 Res 7A Int Wall,              ! Item Name
  ,                                       ! Object End Use Key
  ,                                       ! Quantity {dimensionless}
  0,                                      ! Material Cost {$}
  CostPerArea;                            ! Material Cost Units

OS:ComponentData,
  {4e19b85d-ee70-45cb-859b-b5d4367a3bf7}, ! Handle
  Component Data 1,                       ! Name
  {339623ac-cd0c-491d-9ecd-3174fb7f8bf4}, ! UUID
  {0e21b7f0-a525-4e1c-88b2-48aab9b53d84}, ! Version UUID
  1363981758,                             ! Creation Timestamp
  1363981758,                             ! Version Timestamp
  {5071adcd-3685-40a2-a66b-804b8f12a5e7}, ! Name of Object 1
  {a9a015a8-6e9c-4964-8127-24710be2d00d}, ! Name of Object 2
  {77ce0dae-c814-4dff-87a3-00620a784a87}; ! Name of Object 3

