
OS:Version,
  {e0e53b46-bbf3-47bb-8dd4-a2b0408c67e4}, ! Handle
  0.9.3;                                  ! Version Identifier

OS:Construction,
  {e787f336-f8f5-483c-b72b-c31da3adde6c}, ! Handle
  90.1-2004 Res 7A Int Wall,              ! Name
  ,                                       ! Surface Rendering Name
  {5e06d910-a58d-467b-91b4-9ecbed05067a}, ! Layer 1
  {5e06d910-a58d-467b-91b4-9ecbed05067a}; ! Layer 2

OS:Material,
  {5e06d910-a58d-467b-91b4-9ecbed05067a}, ! Handle
  GP01 1/2 GYPSUM,                        ! Name
  Smooth,                                 ! Roughness
  0.01271,                                ! Thickness {m}
  0.16,                                   ! Conductivity {W/m-K}
  800,                                    ! Density {kg/m3}
  1090,                                   ! Specific Heat {J/kg-K}
  0.9,                                    ! Thermal Absorptance
  0.7,                                    ! Solar Absorptance
  0.5;                                    ! Visible Absorptance

OS:Material,
  {3bc2466f-b743-47f1-b9c2-21d196e5c8b6}, ! Handle
  GP01 1/2 GYPSUM 1,                      ! Name
  Smooth,                                 ! Roughness
  0.01271,                                ! Thickness {m}
  0.16,                                   ! Conductivity {W/m-K}
  800,                                    ! Density {kg/m3}
  1090,                                   ! Specific Heat {J/kg-K}
  0.9,                                    ! Thermal Absorptance
  0.7,                                    ! Solar Absorptance
  0.5;                                    ! Visible Absorptance

OS:ComponentCost:LineItem,
  {0b78e8e8-4c15-4c43-a95b-1321dd009796}, ! Handle
  90.1-2004 Res 7A Int Wall,              ! Name
  ,                                       ! Type
  Construction,                           ! Line Item Type
  90.1-2004 Res 7A Int Wall,              ! Item Name
  ,                                       ! Object End Use Key
  ,                                       ! Quantity {dimensionless}
  0,                                      ! Material Cost {$}
  CostPerArea;                            ! Material Cost Units

