
OS:Version,
  {f1e03fc3-f5df-4994-b92b-d17afda04dc9}, ! Handle
  0.9.3;                                  ! Version Identifier

OS:Construction,
  {c6f3bc7d-5dd9-4224-8f8d-d10bac5c18d2}, ! Handle
  90.1-1999 Res B11 Roof IEAD,            ! Name
  ,                                       ! Surface Rendering Name
  {086bdd81-519e-4bff-b25d-f4cd13151b05}, ! Layer 1
  {1907e341-a328-4063-acfb-5bcbfffea315}, ! Layer 2
  {7ebf608c-af02-4591-a5ae-1b3cb6348005}; ! Layer 3

OS:Material,
  {086bdd81-519e-4bff-b25d-f4cd13151b05}, ! Handle
  Roof Membrane,                          ! Name
  VeryRough,                              ! Roughness
  0.0095,                                 ! Thickness {m}
  0.16,                                   ! Conductivity {W/m-K}
  1121.29,                                ! Density {kg/m3}
  1460,                                   ! Specific Heat {J/kg-K}
  0.9,                                    ! Thermal Absorptance
  0.7,                                    ! Solar Absorptance
  0.7;                                    ! Visible Absorptance

OS:Material,
  {1907e341-a328-4063-acfb-5bcbfffea315}, ! Handle
  Roof Insulation,                        ! Name
  MediumRough,                            ! Roughness
  0.124958,                               ! Thickness {m}
  0.049,                                  ! Conductivity {W/m-K}
  265,                                    ! Density {kg/m3}
  836.8,                                  ! Specific Heat {J/kg-K}
  0.9,                                    ! Thermal Absorptance
  0.7,                                    ! Solar Absorptance
  0.7;                                    ! Visible Absorptance

OS:Material,
  {7ebf608c-af02-4591-a5ae-1b3cb6348005}, ! Handle
  Metal Decking,                          ! Name
  MediumSmooth,                           ! Roughness
  0.001524,                               ! Thickness {m}
  45.006,                                 ! Conductivity {W/m-K}
  7680,                                   ! Density {kg/m3}
  418.4,                                  ! Specific Heat {J/kg-K}
  0.9,                                    ! Thermal Absorptance
  0.7,                                    ! Solar Absorptance
  0.3;                                    ! Visible Absorptance

OS:ComponentCost:LineItem,
  {d9a3c068-9002-4b23-b515-96d5018a4ee7}, ! Handle
  90.1-1999 Res B11 Roof IEAD,            ! Name
  ,                                       ! Type
  Construction,                           ! Line Item Type
  90.1-1999 Res B11 Roof IEAD,            ! Item Name
  ,                                       ! Object End Use Key
  ,                                       ! Quantity {dimensionless}
  49.208,                                 ! Material Cost {$}
  CostPerArea;                            ! Material Cost Units

OS:ComponentData,
  {66df3ad0-c8f8-4ffb-805f-70d00a87b3f9}, ! Handle
  Component Data 1,                       ! Name
  {172875ff-d2cf-4d1d-b59b-681694445770}, ! UUID
  {d856dca8-d4f8-4ae0-aab3-630b088d9bba}, ! Version UUID
  1363981209,                             ! Creation Timestamp
  1363981209,                             ! Version Timestamp
  {c6f3bc7d-5dd9-4224-8f8d-d10bac5c18d2}, ! Name of Object 1
  {086bdd81-519e-4bff-b25d-f4cd13151b05}, ! Name of Object 2
  {1907e341-a328-4063-acfb-5bcbfffea315}, ! Name of Object 3
  {7ebf608c-af02-4591-a5ae-1b3cb6348005}, ! Name of Object 4
  {d9a3c068-9002-4b23-b515-96d5018a4ee7}; ! Name of Object 5

