
OS:Version,
  {349bdd17-1fbb-40f8-9aa1-84ac8af16667}, ! Handle
  0.9.3;                                  ! Version Identifier

OS:ComponentCost:LineItem,
  {a49d1773-f18a-416b-a688-f12e93e2bb95}, ! Handle
  90.1-1999 Res B11 Roof IEAD,            ! Name
  ,                                       ! Type
  Construction,                           ! Line Item Type
  90.1-1999 Res B11 Roof IEAD,            ! Item Name
  ,                                       ! Object End Use Key
  ,                                       ! Quantity {dimensionless}
  49.208,                                 ! Material Cost {$}
  CostPerArea;                            ! Material Cost Units

OS:Material,
  {895149b6-d0a2-480f-93fc-c5d4e0c9f1f1}, ! Handle
  Roof Membrane,                          ! Name
  VeryRough,                              ! Roughness
  0.0095,                                 ! Thickness {m}
  0.16,                                   ! Conductivity {W/m-K}
  1121.29,                                ! Density {kg/m3}
  1460,                                   ! Specific Heat {J/kg-K}
  0.9,                                    ! Thermal Absorptance
  0.7,                                    ! Solar Absorptance
  0.7;                                    ! Visible Absorptance

OS:Material,
  {1c95bc31-f3ff-431d-b738-50679614a66c}, ! Handle
  Roof Insulation,                        ! Name
  MediumRough,                            ! Roughness
  0.124958,                               ! Thickness {m}
  0.049,                                  ! Conductivity {W/m-K}
  265,                                    ! Density {kg/m3}
  836.8,                                  ! Specific Heat {J/kg-K}
  0.9,                                    ! Thermal Absorptance
  0.7,                                    ! Solar Absorptance
  0.7;                                    ! Visible Absorptance

OS:Material,
  {e526d276-88c8-4eed-b103-6b6ba3c6609d}, ! Handle
  Metal Decking,                          ! Name
  MediumSmooth,                           ! Roughness
  0.001524,                               ! Thickness {m}
  45.006,                                 ! Conductivity {W/m-K}
  7680,                                   ! Density {kg/m3}
  418.4,                                  ! Specific Heat {J/kg-K}
  0.9,                                    ! Thermal Absorptance
  0.7,                                    ! Solar Absorptance
  0.3;                                    ! Visible Absorptance

OS:Construction,
  {77440325-5804-44fd-add9-e4190b8439bd}, ! Handle
  90.1-1999 Res B11 Roof IEAD,            ! Name
  ,                                       ! Surface Rendering Name
  {895149b6-d0a2-480f-93fc-c5d4e0c9f1f1}, ! Layer 1
  {1c95bc31-f3ff-431d-b738-50679614a66c}, ! Layer 2
  {e526d276-88c8-4eed-b103-6b6ba3c6609d}; ! Layer 3

