
OS:Version,
  {3e0e5e36-ff11-41ab-aaaa-86c45c3e3f23}, ! Handle
  0.9.3;                                  ! Version Identifier

OS:Material,
  {89129ea2-13e1-47ff-8f2b-f6633860d851}, ! Handle
  Metal Roofing,                          ! Name
  MediumSmooth,                           ! Roughness
  0.001524,                               ! Thickness {m}
  45.006,                                 ! Conductivity {W/m-K}
  7680,                                   ! Density {kg/m3}
  418.4,                                  ! Specific Heat {J/kg-K}
  0.9,                                    ! Thermal Absorptance
  0.7,                                    ! Solar Absorptance
  0.3;                                    ! Visible Absorptance

OS:Material,
  {3285f9f3-8932-41d4-8591-be4ddf115ca6}, ! Handle
  Roof Insulation [8],                    ! Name
  MediumRough,                            ! Roughness
  0.166908,                               ! Thickness {m}
  0.049,                                  ! Conductivity {W/m-K}
  265,                                    ! Density {kg/m3}
  836.8,                                  ! Specific Heat {J/kg-K}
  0.9,                                    ! Thermal Absorptance
  0.7,                                    ! Solar Absorptance
  0.7;                                    ! Visible Absorptance

OS:Construction,
  {1b434c92-f664-4c62-9107-c111d3c0d160}, ! Handle
  90.1-2001 Nonres B25 Roof Metal Building, ! Name
  ,                                       ! Surface Rendering Name
  {89129ea2-13e1-47ff-8f2b-f6633860d851}, ! Layer 1
  {3285f9f3-8932-41d4-8591-be4ddf115ca6}; ! Layer 2

OS:ComponentCost:LineItem,
  {c451332e-7b47-47a2-abc4-580de1d9a43b}, ! Handle
  90.1-2001 Nonres B25 Roof Metal Building, ! Name
  ,                                       ! Type
  Construction,                           ! Line Item Type
  90.1-2001 Nonres B25 Roof Metal Building, ! Item Name
  ,                                       ! Object End Use Key
  ,                                       ! Quantity {dimensionless}
  42.184,                                 ! Material Cost {$}
  CostPerArea;                            ! Material Cost Units

