
OS:Version,
  {a16a9e5e-a9d6-4857-badb-4d30efae006e}, ! Handle
  0.9.3;                                  ! Version Identifier

OS:Construction,
  {d2e99d5c-f70d-4b04-9bbc-ff3f47eb7814}, ! Handle
  90.1-2001 Nonres B25 Roof Metal Building, ! Name
  ,                                       ! Surface Rendering Name
  {8853a800-4370-4ec4-aa32-74c95ad73bbf}, ! Layer 1
  {3486e7e3-208b-4ac2-ae9f-a53faf5eae40}; ! Layer 2

OS:Material,
  {8853a800-4370-4ec4-aa32-74c95ad73bbf}, ! Handle
  Metal Roofing,                          ! Name
  MediumSmooth,                           ! Roughness
  0.001524,                               ! Thickness {m}
  45.006,                                 ! Conductivity {W/m-K}
  7680,                                   ! Density {kg/m3}
  418.4,                                  ! Specific Heat {J/kg-K}
  0.9,                                    ! Thermal Absorptance
  0.7,                                    ! Solar Absorptance
  0.3;                                    ! Visible Absorptance

OS:Material,
  {3486e7e3-208b-4ac2-ae9f-a53faf5eae40}, ! Handle
  Roof Insulation [8],                    ! Name
  MediumRough,                            ! Roughness
  0.166908,                               ! Thickness {m}
  0.049,                                  ! Conductivity {W/m-K}
  265,                                    ! Density {kg/m3}
  836.8,                                  ! Specific Heat {J/kg-K}
  0.9,                                    ! Thermal Absorptance
  0.7,                                    ! Solar Absorptance
  0.7;                                    ! Visible Absorptance

OS:ComponentCost:LineItem,
  {8b40ab6d-4b53-4b13-822b-0dbdfd47db06}, ! Handle
  90.1-2001 Nonres B25 Roof Metal Building, ! Name
  ,                                       ! Type
  Construction,                           ! Line Item Type
  90.1-2001 Nonres B25 Roof Metal Building, ! Item Name
  ,                                       ! Object End Use Key
  ,                                       ! Quantity {dimensionless}
  42.184,                                 ! Material Cost {$}
  CostPerArea;                            ! Material Cost Units

OS:ComponentData,
  {932ea02c-58d2-4f3d-819b-1d608f3bb758}, ! Handle
  Component Data 1,                       ! Name
  {ba123ab9-fcaf-40e4-a047-13611d52fe58}, ! UUID
  {3c3f41dd-9474-4af6-9431-e9ee3f2974c7}, ! Version UUID
  1363981431,                             ! Creation Timestamp
  1363981431,                             ! Version Timestamp
  {d2e99d5c-f70d-4b04-9bbc-ff3f47eb7814}, ! Name of Object 1
  {8853a800-4370-4ec4-aa32-74c95ad73bbf}, ! Name of Object 2
  {3486e7e3-208b-4ac2-ae9f-a53faf5eae40}, ! Name of Object 3
  {8b40ab6d-4b53-4b13-822b-0dbdfd47db06}; ! Name of Object 4

