
OS:Version,
  {c7a9ed7e-852c-42c3-b84d-3afd79268080}, ! Handle
  0.9.3;                                  ! Version Identifier

OS:Material,
  {3bb0930c-8475-42f4-9322-5e2065a53c0f}, ! Handle
  Metal Siding,                           ! Name
  Smooth,                                 ! Roughness
  0.0015,                                 ! Thickness {m}
  44.96,                                  ! Conductivity {W/m-K}
  7688.86,                                ! Density {kg/m3}
  410,                                    ! Specific Heat {J/kg-K}
  0.9,                                    ! Thermal Absorptance
  0.2,                                    ! Solar Absorptance
  0.2;                                    ! Visible Absorptance

OS:ComponentCost:LineItem,
  {b808b082-13a6-46a1-b2a5-81d0281734b5}, ! Handle
  90.1-2001 Nonres B4 Ext Wall Metal Building, ! Name
  ,                                       ! Type
  Construction,                           ! Line Item Type
  90.1-2001 Nonres B4 Ext Wall Metal Building, ! Item Name
  ,                                       ! Object End Use Key
  ,                                       ! Quantity {dimensionless}
  98.719,                                 ! Material Cost {$}
  CostPerArea;                            ! Material Cost Units

OS:Material,
  {de13f773-361e-45f3-b07e-64d01b4c0df4}, ! Handle
  1/2IN Gypsum,                           ! Name
  Smooth,                                 ! Roughness
  0.01271,                                ! Thickness {m}
  0.16,                                   ! Conductivity {W/m-K}
  784.9,                                  ! Density {kg/m3}
  830,                                    ! Specific Heat {J/kg-K}
  0.9,                                    ! Thermal Absorptance
  0.92,                                   ! Solar Absorptance
  0.92;                                   ! Visible Absorptance

OS:Material,
  {ae91e720-9d50-4f4a-bbff-0a1a3481b80a}, ! Handle
  Wall Insulation [3],                    ! Name
  MediumRough,                            ! Roughness
  0.0541893,                              ! Thickness {m}
  0.045,                                  ! Conductivity {W/m-K}
  265,                                    ! Density {kg/m3}
  836.8,                                  ! Specific Heat {J/kg-K}
  0.9,                                    ! Thermal Absorptance
  0.7,                                    ! Solar Absorptance
  0.7;                                    ! Visible Absorptance

OS:Construction,
  {9b84741a-ac32-4eeb-9735-75b0b08d8d7c}, ! Handle
  90.1-2001 Nonres B4 Ext Wall Metal Building, ! Name
  ,                                       ! Surface Rendering Name
  {3bb0930c-8475-42f4-9322-5e2065a53c0f}, ! Layer 1
  {ae91e720-9d50-4f4a-bbff-0a1a3481b80a}, ! Layer 2
  {de13f773-361e-45f3-b07e-64d01b4c0df4}; ! Layer 3

