
OS:Version,
  {d8d7916a-c3e1-4bcf-9b9c-82f75dada4d9}, ! Handle
  0.9.3;                                  ! Version Identifier

OS:ComponentCost:LineItem,
  {43031eb9-d3a8-45db-b58f-cc085bd70ad1}, ! Handle
  90.1-2007 Res 2A Ext Slab Unheated - 4in Slab without Carpet, ! Name
  ,                                       ! Type
  Construction,                           ! Line Item Type
  90.1-2007 Res 2A Ext Slab Unheated - 4in Slab without Carpet, ! Item Name
  ,                                       ! Object End Use Key
  ,                                       ! Quantity {dimensionless}
  45.52,                                  ! Material Cost {$}
  CostPerArea;                            ! Material Cost Units

OS:Construction,
  {d67cc55b-2109-4f9b-a937-fbff55c7e650}, ! Handle
  90.1-2007 Res 2A Ext Slab Unheated - 4in Slab without Carpet, ! Name
  ,                                       ! Surface Rendering Name
  {bc2897a1-d7e6-4692-af16-0438fd55f6ff}; ! Layer 1

OS:Material,
  {bc2897a1-d7e6-4692-af16-0438fd55f6ff}, ! Handle
  MAT-CC05 4 HW CONCRETE,                 ! Name
  Rough,                                  ! Roughness
  0.1016,                                 ! Thickness {m}
  1.311,                                  ! Conductivity {W/m-K}
  2240,                                   ! Density {kg/m3}
  836.8,                                  ! Specific Heat {J/kg-K}
  0.9,                                    ! Thermal Absorptance
  0.7,                                    ! Solar Absorptance
  0.7;                                    ! Visible Absorptance

