
OS:Version,
  {5c537203-1520-4b3d-bcfd-5e57abb00d0d}, ! Handle
  0.9.3;                                  ! Version Identifier

OS:Construction,
  {85f4b974-eac6-4fb8-b4ac-9d3e1404a2cd}, ! Handle
  90.1-2007 Res 2A Ext Slab Unheated - 4in Slab without Carpet, ! Name
  ,                                       ! Surface Rendering Name
  {39b03fc6-1ce7-4d2a-b5ac-f0d4c7ed3c66}; ! Layer 1

OS:Material,
  {39b03fc6-1ce7-4d2a-b5ac-f0d4c7ed3c66}, ! Handle
  MAT-CC05 4 HW CONCRETE,                 ! Name
  Rough,                                  ! Roughness
  0.1016,                                 ! Thickness {m}
  1.311,                                  ! Conductivity {W/m-K}
  2240,                                   ! Density {kg/m3}
  836.8,                                  ! Specific Heat {J/kg-K}
  0.9,                                    ! Thermal Absorptance
  0.7,                                    ! Solar Absorptance
  0.7;                                    ! Visible Absorptance

OS:ComponentCost:LineItem,
  {da46e090-d6ca-4cfb-8868-a4818351f3d4}, ! Handle
  90.1-2007 Res 2A Ext Slab Unheated - 4in Slab without Carpet, ! Name
  ,                                       ! Type
  Construction,                           ! Line Item Type
  90.1-2007 Res 2A Ext Slab Unheated - 4in Slab without Carpet, ! Item Name
  ,                                       ! Object End Use Key
  ,                                       ! Quantity {dimensionless}
  45.52,                                  ! Material Cost {$}
  CostPerArea;                            ! Material Cost Units

OS:ComponentData,
  {e989d6ae-2a48-4312-ae2a-46fdfa5667de}, ! Handle
  Component Data 1,                       ! Name
  {5c747907-46a0-494d-a4d6-8d4356be762a}, ! UUID
  {86d3e234-f332-4016-8c8f-51d4a74a57a3}, ! Version UUID
  1363981840,                             ! Creation Timestamp
  1363981840,                             ! Version Timestamp
  {85f4b974-eac6-4fb8-b4ac-9d3e1404a2cd}, ! Name of Object 1
  {39b03fc6-1ce7-4d2a-b5ac-f0d4c7ed3c66}, ! Name of Object 2
  {da46e090-d6ca-4cfb-8868-a4818351f3d4}; ! Name of Object 3

