
OS:Version,
  {675daf78-ece1-46c0-af84-0cbfbf04b6f0}, ! Handle
  0.9.3;                                  ! Version Identifier

OS:Material,
  {1c2e776b-3c32-4564-bf62-b3628fa650cd}, ! Handle
  Wood Siding,                            ! Name
  MediumSmooth,                           ! Roughness
  0.01,                                   ! Thickness {m}
  0.11,                                   ! Conductivity {W/m-K}
  544.62,                                 ! Density {kg/m3}
  1210,                                   ! Specific Heat {J/kg-K}
  0.9,                                    ! Thermal Absorptance
  0.78,                                   ! Solar Absorptance
  0.78;                                   ! Visible Absorptance

OS:Construction,
  {0bb24f03-a223-4eaf-91ff-b84e72e908f2}, ! Handle
  90.1-2001 Nonres B9 Ext Wall Wood-Framed and Other, ! Name
  ,                                       ! Surface Rendering Name
  {1c2e776b-3c32-4564-bf62-b3628fa650cd}, ! Layer 1
  {10d5bf56-d36e-4f0d-a6e1-15c29a321448}, ! Layer 2
  {19c0c998-3435-4d6b-bfc1-6ff8fdc88add}; ! Layer 3

OS:Material,
  {10d5bf56-d36e-4f0d-a6e1-15c29a321448}, ! Handle
  Wall Insulation [2],                    ! Name
  MediumRough,                            ! Roughness
  0.0746874,                              ! Thickness {m}
  0.045,                                  ! Conductivity {W/m-K}
  265,                                    ! Density {kg/m3}
  836.8,                                  ! Specific Heat {J/kg-K}
  0.9,                                    ! Thermal Absorptance
  0.7,                                    ! Solar Absorptance
  0.7;                                    ! Visible Absorptance

OS:Material,
  {19c0c998-3435-4d6b-bfc1-6ff8fdc88add}, ! Handle
  1/2IN Gypsum,                           ! Name
  Smooth,                                 ! Roughness
  0.01271,                                ! Thickness {m}
  0.16,                                   ! Conductivity {W/m-K}
  784.9,                                  ! Density {kg/m3}
  830,                                    ! Specific Heat {J/kg-K}
  0.9,                                    ! Thermal Absorptance
  0.92,                                   ! Solar Absorptance
  0.92;                                   ! Visible Absorptance

OS:ComponentCost:LineItem,
  {08ea52d7-984a-484d-812c-e2767d882de1}, ! Handle
  90.1-2001 Nonres B9 Ext Wall Wood-Framed and Other, ! Name
  ,                                       ! Type
  Construction,                           ! Line Item Type
  90.1-2001 Nonres B9 Ext Wall Wood-Framed and Other, ! Item Name
  ,                                       ! Object End Use Key
  ,                                       ! Quantity {dimensionless}
  73.056,                                 ! Material Cost {$}
  CostPerArea;                            ! Material Cost Units

