
OS:Version,
  {ba553dba-0aff-4cbb-8006-8f658f4bdcea}, ! Handle
  0.9.3;                                  ! Version Identifier

OS:Construction,
  {153b3b63-0a45-4948-8133-f79d3c53ff51}, ! Handle
  90.1 Constructions Ext Wall Mass NR,    ! Name
  ,                                       ! Surface Rendering Name
  {3a3280e4-e7a0-44d5-a94e-f723b18eaee7}, ! Layer 1
  {ebeb6e15-ed3b-4884-bc78-1684aa9fe5a4}, ! Layer 2
  {d49bf39a-69fc-43cb-9001-de6b58b40ccb}; ! Layer 3

OS:Material,
  {3a3280e4-e7a0-44d5-a94e-f723b18eaee7}, ! Handle
  1IN Stucco,                             ! Name
  Smooth,                                 ! Roughness
  0.0253,                                 ! Thickness {m}
  0.6918,                                 ! Conductivity {W/m-K}
  1858,                                   ! Density {kg/m3}
  837,                                    ! Specific Heat {J/kg-K}
  0.9,                                    ! Thermal Absorptance
  0.92,                                   ! Solar Absorptance
  0.92;                                   ! Visible Absorptance

OS:Material,
  {ebeb6e15-ed3b-4884-bc78-1684aa9fe5a4}, ! Handle
  8IN Concrete HW,                        ! Name
  MediumRough,                            ! Roughness
  0.2033,                                 ! Thickness {m}
  1.7296,                                 ! Conductivity {W/m-K}
  2243,                                   ! Density {kg/m3}
  837,                                    ! Specific Heat {J/kg-K}
  0.9,                                    ! Thermal Absorptance
  0.65,                                   ! Solar Absorptance
  0.65;                                   ! Visible Absorptance

OS:Material,
  {d49bf39a-69fc-43cb-9001-de6b58b40ccb}, ! Handle
  1/2IN Gypsum,                           ! Name
  Smooth,                                 ! Roughness
  0.01271,                                ! Thickness {m}
  0.16,                                   ! Conductivity {W/m-K}
  784.9,                                  ! Density {kg/m3}
  830,                                    ! Specific Heat {J/kg-K}
  0.9,                                    ! Thermal Absorptance
  0.92,                                   ! Solar Absorptance
  0.92;                                   ! Visible Absorptance

OS:ComponentCost:LineItem,
  {911e54b2-91db-4498-87df-385671a76f23}, ! Handle
  90.1 Constructions Ext Wall Mass NR,    ! Name
  ,                                       ! Type
  Construction,                           ! Line Item Type
  90.1 Constructions Ext Wall Mass NR,    ! Item Name
  ,                                       ! Object End Use Key
  ,                                       ! Quantity {dimensionless}
  41.397,                                 ! Material Cost {$}
  CostPerArea;                            ! Material Cost Units

OS:ComponentData,
  {15d1cd30-4213-4d69-ba34-1212787a110f}, ! Handle
  Component Data 1,                       ! Name
  {edc98263-af5f-48d5-8048-aa774bac9c54}, ! UUID
  {0c7bbb1f-02aa-4efe-8ba3-376b97ae9383}, ! Version UUID
  1363980992,                             ! Creation Timestamp
  1363980992,                             ! Version Timestamp
  {153b3b63-0a45-4948-8133-f79d3c53ff51}, ! Name of Object 1
  {3a3280e4-e7a0-44d5-a94e-f723b18eaee7}, ! Name of Object 2
  {ebeb6e15-ed3b-4884-bc78-1684aa9fe5a4}, ! Name of Object 3
  {d49bf39a-69fc-43cb-9001-de6b58b40ccb}, ! Name of Object 4
  {911e54b2-91db-4498-87df-385671a76f23}; ! Name of Object 5

