
OS:Version,
  {08a26ea7-036f-4c79-b0ea-55ab586217dd}, ! Handle
  0.9.3;                                  ! Version Identifier

OS:Construction,
  {68a79746-201e-4f3b-b3e2-cc838e2dc597}, ! Handle
  90.1-2004 Res 6B Ext Wall Wood-Framed and Other, ! Name
  ,                                       ! Surface Rendering Name
  {7bf2ca22-279a-4200-9ec5-2587156bc8aa}, ! Layer 1
  {10ea1a85-188e-4045-8521-e85ef6115427}, ! Layer 2
  {210e7675-7b62-490c-8779-85136cc9eefd}; ! Layer 3

OS:Material,
  {7bf2ca22-279a-4200-9ec5-2587156bc8aa}, ! Handle
  Wood Siding,                            ! Name
  MediumSmooth,                           ! Roughness
  0.01,                                   ! Thickness {m}
  0.11,                                   ! Conductivity {W/m-K}
  544.62,                                 ! Density {kg/m3}
  1210,                                   ! Specific Heat {J/kg-K}
  0.9,                                    ! Thermal Absorptance
  0.78,                                   ! Solar Absorptance
  0.78;                                   ! Visible Absorptance

OS:Material,
  {10ea1a85-188e-4045-8521-e85ef6115427}, ! Handle
  Wall Insulation [11],                   ! Name
  MediumRough,                            ! Roughness
  0.109279,                               ! Thickness {m}
  0.045,                                  ! Conductivity {W/m-K}
  265,                                    ! Density {kg/m3}
  836.8,                                  ! Specific Heat {J/kg-K}
  0.9,                                    ! Thermal Absorptance
  0.7,                                    ! Solar Absorptance
  0.7;                                    ! Visible Absorptance

OS:Material,
  {210e7675-7b62-490c-8779-85136cc9eefd}, ! Handle
  1/2IN Gypsum,                           ! Name
  Smooth,                                 ! Roughness
  0.01271,                                ! Thickness {m}
  0.16,                                   ! Conductivity {W/m-K}
  784.9,                                  ! Density {kg/m3}
  830,                                    ! Specific Heat {J/kg-K}
  0.9,                                    ! Thermal Absorptance
  0.92,                                   ! Solar Absorptance
  0.92;                                   ! Visible Absorptance

OS:ComponentCost:LineItem,
  {d52e3687-d131-45bd-a527-1251016278bc}, ! Handle
  90.1-2004 Res 6B Ext Wall Wood-Framed and Other, ! Name
  ,                                       ! Type
  Construction,                           ! Line Item Type
  90.1-2004 Res 6B Ext Wall Wood-Framed and Other, ! Item Name
  ,                                       ! Object End Use Key
  ,                                       ! Quantity {dimensionless}
  77.608,                                 ! Material Cost {$}
  CostPerArea;                            ! Material Cost Units

OS:ComponentData,
  {92c577b7-38ee-4886-8195-a7ccb8a4a76d}, ! Handle
  Component Data 1,                       ! Name
  {a09d2771-1a24-4eff-bdc6-a8971e7643a0}, ! UUID
  {506dcb36-acae-4599-bd18-e3120f09dd8a}, ! Version UUID
  1363981754,                             ! Creation Timestamp
  1363981754,                             ! Version Timestamp
  {68a79746-201e-4f3b-b3e2-cc838e2dc597}, ! Name of Object 1
  {7bf2ca22-279a-4200-9ec5-2587156bc8aa}, ! Name of Object 2
  {10ea1a85-188e-4045-8521-e85ef6115427}, ! Name of Object 3
  {210e7675-7b62-490c-8779-85136cc9eefd}, ! Name of Object 4
  {d52e3687-d131-45bd-a527-1251016278bc}; ! Name of Object 5

