
OS:Version,
  {90e8fef5-0074-4bdb-a41d-15df3a917f77}, ! Handle
  0.9.3;                                  ! Version Identifier

OS:Material,
  {d482d000-45ad-46d6-b936-ff99ec2d3e2a}, ! Handle
  Wood Siding,                            ! Name
  MediumSmooth,                           ! Roughness
  0.01,                                   ! Thickness {m}
  0.11,                                   ! Conductivity {W/m-K}
  544.62,                                 ! Density {kg/m3}
  1210,                                   ! Specific Heat {J/kg-K}
  0.9,                                    ! Thermal Absorptance
  0.78,                                   ! Solar Absorptance
  0.78;                                   ! Visible Absorptance

OS:Material,
  {04caa9ee-1120-49b7-a87d-3a01dec421ad}, ! Handle
  1/2IN Gypsum,                           ! Name
  Smooth,                                 ! Roughness
  0.01271,                                ! Thickness {m}
  0.16,                                   ! Conductivity {W/m-K}
  784.9,                                  ! Density {kg/m3}
  830,                                    ! Specific Heat {J/kg-K}
  0.9,                                    ! Thermal Absorptance
  0.92,                                   ! Solar Absorptance
  0.92;                                   ! Visible Absorptance

OS:ComponentCost:LineItem,
  {1d365719-58f7-4e9c-b69f-bf6067143e05}, ! Handle
  90.1-2004 Res 6B Ext Wall Wood-Framed and Other, ! Name
  ,                                       ! Type
  Construction,                           ! Line Item Type
  90.1-2004 Res 6B Ext Wall Wood-Framed and Other, ! Item Name
  ,                                       ! Object End Use Key
  ,                                       ! Quantity {dimensionless}
  77.608,                                 ! Material Cost {$}
  CostPerArea;                            ! Material Cost Units

OS:Material,
  {a25d5550-aaa8-4f26-b8c1-c811da88ddfa}, ! Handle
  Wall Insulation [11],                   ! Name
  MediumRough,                            ! Roughness
  0.109279,                               ! Thickness {m}
  0.045,                                  ! Conductivity {W/m-K}
  265,                                    ! Density {kg/m3}
  836.8,                                  ! Specific Heat {J/kg-K}
  0.9,                                    ! Thermal Absorptance
  0.7,                                    ! Solar Absorptance
  0.7;                                    ! Visible Absorptance

OS:Construction,
  {0abfe0ec-980e-4014-9056-0ce8e5301831}, ! Handle
  90.1-2004 Res 6B Ext Wall Wood-Framed and Other, ! Name
  ,                                       ! Surface Rendering Name
  {d482d000-45ad-46d6-b936-ff99ec2d3e2a}, ! Layer 1
  {a25d5550-aaa8-4f26-b8c1-c811da88ddfa}, ! Layer 2
  {04caa9ee-1120-49b7-a87d-3a01dec421ad}; ! Layer 3

