
OS:Version,
  {434821c6-cfc4-43cb-9d9e-3e744fae51e8}, ! Handle
  0.9.3;                                  ! Version Identifier

OS:Material,
  {3ac38d5e-f04f-41f0-ada1-bbbaeb8ebb3e}, ! Handle
  8IN Concrete HW,                        ! Name
  MediumRough,                            ! Roughness
  0.2033,                                 ! Thickness {m}
  1.7296,                                 ! Conductivity {W/m-K}
  2243,                                   ! Density {kg/m3}
  837,                                    ! Specific Heat {J/kg-K}
  0.9,                                    ! Thermal Absorptance
  0.65,                                   ! Solar Absorptance
  0.65;                                   ! Visible Absorptance

OS:ComponentCost:LineItem,
  {466f35b3-1a47-4670-95ee-355e8e089fb9}, ! Handle
  Title 24-2008 Nonres 10 Ext Wall Mass,  ! Name
  ,                                       ! Type
  Construction,                           ! Line Item Type
  Title 24-2008 Nonres 10 Ext Wall Mass,  ! Item Name
  ,                                       ! Object End Use Key
  ,                                       ! Quantity {dimensionless}
  211.895,                                ! Material Cost {$}
  CostPerArea;                            ! Material Cost Units

OS:Material,
  {5e809f99-0ac9-42d7-afe1-bbc5c7ee98fe}, ! Handle
  1/2IN Gypsum,                           ! Name
  Smooth,                                 ! Roughness
  0.01271,                                ! Thickness {m}
  0.16,                                   ! Conductivity {W/m-K}
  784.9,                                  ! Density {kg/m3}
  830,                                    ! Specific Heat {J/kg-K}
  0.9,                                    ! Thermal Absorptance
  0.92,                                   ! Solar Absorptance
  0.92;                                   ! Visible Absorptance

OS:Material,
  {ad94c1dc-cfb2-4e5d-90fe-af77ec7f5c63}, ! Handle
  1IN Stucco,                             ! Name
  Smooth,                                 ! Roughness
  0.0253,                                 ! Thickness {m}
  0.6918,                                 ! Conductivity {W/m-K}
  1858,                                   ! Density {kg/m3}
  837,                                    ! Specific Heat {J/kg-K}
  0.9,                                    ! Thermal Absorptance
  0.92,                                   ! Solar Absorptance
  0.92;                                   ! Visible Absorptance

OS:Material,
  {42077368-2da0-4681-8800-b65760470b77}, ! Handle
  Wall Insulation [158],                  ! Name
  MediumRough,                            ! Roughness
  0.0509,                                 ! Thickness {m}
  0.0432,                                 ! Conductivity {W/m-K}
  91,                                     ! Density {kg/m3}
  837,                                    ! Specific Heat {J/kg-K}
  0.9,                                    ! Thermal Absorptance
  0.5,                                    ! Solar Absorptance
  0.5;                                    ! Visible Absorptance

OS:Construction,
  {03d9b8e7-343a-4e8a-a394-6fc20a8e62d3}, ! Handle
  Title 24-2008 Nonres 10 Ext Wall Mass,  ! Name
  ,                                       ! Surface Rendering Name
  {ad94c1dc-cfb2-4e5d-90fe-af77ec7f5c63}, ! Layer 1
  {3ac38d5e-f04f-41f0-ada1-bbbaeb8ebb3e}, ! Layer 2
  {42077368-2da0-4681-8800-b65760470b77}, ! Layer 3
  {5e809f99-0ac9-42d7-afe1-bbc5c7ee98fe}; ! Layer 4

