
OS:Version,
  {9d4fb356-8765-4881-b291-f2adec2c1feb}, ! Handle
  0.9.3;                                  ! Version Identifier

OS:Material,
  {1f0cdc61-94f9-4903-81d3-c61b700bfb9b}, ! Handle
  Metal Siding,                           ! Name
  Smooth,                                 ! Roughness
  0.0015,                                 ! Thickness {m}
  44.96,                                  ! Conductivity {W/m-K}
  7688.86,                                ! Density {kg/m3}
  410,                                    ! Specific Heat {J/kg-K}
  0.9,                                    ! Thermal Absorptance
  0.2,                                    ! Solar Absorptance
  0.2;                                    ! Visible Absorptance

OS:Material,
  {ef7fcf71-df9b-4f42-a2f3-7f525d14fe4d}, ! Handle
  Wall Insulation,                        ! Name
  MediumRough,                            ! Roughness
  0.0598725,                              ! Thickness {m}
  0.045,                                  ! Conductivity {W/m-K}
  265,                                    ! Density {kg/m3}
  836.8,                                  ! Specific Heat {J/kg-K}
  0.9,                                    ! Thermal Absorptance
  0.7,                                    ! Solar Absorptance
  0.7;                                    ! Visible Absorptance

OS:Material,
  {423cef47-1b58-4c6b-906e-ff1bb5581b41}, ! Handle
  1/2IN Gypsum,                           ! Name
  Smooth,                                 ! Roughness
  0.01271,                                ! Thickness {m}
  0.16,                                   ! Conductivity {W/m-K}
  784.9,                                  ! Density {kg/m3}
  830,                                    ! Specific Heat {J/kg-K}
  0.9,                                    ! Thermal Absorptance
  0.92,                                   ! Solar Absorptance
  0.92;                                   ! Visible Absorptance

OS:ComponentCost:LineItem,
  {79f7a7c3-b017-48c2-b42e-41744ceb90d0}, ! Handle
  90.1-1999 Nonres B5 Ext Wall Metal Building, ! Name
  ,                                       ! Type
  Construction,                           ! Line Item Type
  90.1-1999 Nonres B5 Ext Wall Metal Building, ! Item Name
  ,                                       ! Object End Use Key
  ,                                       ! Quantity {dimensionless}
  98.78,                                  ! Material Cost {$}
  CostPerArea;                            ! Material Cost Units

OS:Construction,
  {2a186e69-4642-4300-974b-392d35fb53c3}, ! Handle
  90.1-1999 Nonres B5 Ext Wall Metal Building, ! Name
  ,                                       ! Surface Rendering Name
  {1f0cdc61-94f9-4903-81d3-c61b700bfb9b}, ! Layer 1
  {ef7fcf71-df9b-4f42-a2f3-7f525d14fe4d}, ! Layer 2
  {423cef47-1b58-4c6b-906e-ff1bb5581b41}; ! Layer 3

