
OS:Version,
  {f68ee076-603f-4094-b2af-ff2529cb186b}, ! Handle
  0.9.3;                                  ! Version Identifier

OS:Construction,
  {7a82d43a-22b7-4177-9aeb-c9de6e51be64}, ! Handle
  90.1-2004 Res 7A Exposed Floor Mass,    ! Name
  ,                                       ! Surface Rendering Name
  {a637252f-2c2f-4d2a-ba9c-3f100d3c50bb}, ! Layer 1
  {60adaaa7-d106-4dfb-b00c-c8cfc4da87c3}, ! Layer 2
  {0ca724d5-546d-41df-977d-b774f1d834ef}; ! Layer 3

OS:Material,
  {a637252f-2c2f-4d2a-ba9c-3f100d3c50bb}, ! Handle
  Floor Insulation [3],                   ! Name
  MediumRough,                            ! Roughness
  0.0962549,                              ! Thickness {m}
  0.045,                                  ! Conductivity {W/m-K}
  265,                                    ! Density {kg/m3}
  836.8,                                  ! Specific Heat {J/kg-K}
  0.9,                                    ! Thermal Absorptance
  0.7,                                    ! Solar Absorptance
  0.7;                                    ! Visible Absorptance

OS:Material,
  {60adaaa7-d106-4dfb-b00c-c8cfc4da87c3}, ! Handle
  MAT-CC05 8 HW CONCRETE,                 ! Name
  Rough,                                  ! Roughness
  0.20321,                                ! Thickness {m}
  1.311,                                  ! Conductivity {W/m-K}
  2240,                                   ! Density {kg/m3}
  836.8,                                  ! Specific Heat {J/kg-K}
  0.9,                                    ! Thermal Absorptance
  0.7,                                    ! Solar Absorptance
  0.7;                                    ! Visible Absorptance

OS:Material:NoMass,
  {0ca724d5-546d-41df-977d-b774f1d834ef}, ! Handle
  CP02 CARPET PAD,                        ! Name
  VeryRough,                              ! Roughness
  0.21648,                                ! Thermal Resistance {m2-K/W}
  0.9,                                    ! Thermal Absorptance
  0.7,                                    ! Solar Absorptance
  0.8;                                    ! Visible Absorptance

OS:ComponentCost:LineItem,
  {9675b1a5-81f6-45a7-afc5-54a2e841936b}, ! Handle
  90.1-2004 Res 7A Exposed Floor Mass,    ! Name
  ,                                       ! Type
  Construction,                           ! Line Item Type
  90.1-2004 Res 7A Exposed Floor Mass,    ! Item Name
  ,                                       ! Object End Use Key
  ,                                       ! Quantity {dimensionless}
  54.164,                                 ! Material Cost {$}
  CostPerArea;                            ! Material Cost Units

