
! 
OS:Version,
  {9c37d538-db0d-4a47-9850-5bede7e76bd5}, !- Handle
  1.13.0;                                 !- Version Identifier


! {"nombreProductoCorto": "CLIMALIT PLUS con COOL LITE SKN 076 F2 6 (16 argon90%) 44.2 DIAMANT", "codigoEAN": "", "handle": "b68cfdc0-aa84-48c1-8da2-7112b9c04457", "g": 0.37, "tV": 0.7, "u": 1.0, "nombreProducto": "CLIMALIT PLUS con COOL LITE SKN 076 F2 6 (16 argon90%) 44.2 DIAMANT\nU:1.0 W/m2K - g:0.37 - Tv: 0.70"}
OS:WindowMaterial:SimpleGlazingSystem,
  {b68cfdc0-aa84-48c1-8da2-7112b9c04457}, !- Handle
  CLIMALIT PLUS con COOL LITE SKN 076 F2 6 (16 argon90%) 44.2 DIAMANT, !- Name
  1.0,                                    !- U-Factor {W/m2-K}
  0.37,                                    !- Solar Heat Gain Coefficient
  0.7;                                    !- Visible Transmittance     
  
  
OS:Construction,
  {6cafb9ab-09ea-4f1c-b581-bf34cac5035c}, !- Handle
  CLIMALIT PLUS con COOL LITE SKN 076 F2 6 (16 argon90%) 44.2 DIAMANT,                         !- Name
  ,                                       !- Surface Rendering Name
  {b68cfdc0-aa84-48c1-8da2-7112b9c04457}; !- Layer 1  

