
OS:Version,
  {3f3259ce-34a2-46aa-bc6b-83ad530836ae}, ! Handle
  0.9.3;                                  ! Version Identifier

OS:Construction,
  {9cb2457f-7d7f-47b7-a4fe-4e445b12be10}, ! Handle
  AEDG-SmOffice 2A Ext Slab Unheated - 8in Slab without Carpet, ! Name
  ,                                       ! Surface Rendering Name
  {b977c1b1-2b2c-4edc-8cfe-28f9cadc974b}; ! Layer 1

OS:Material,
  {b977c1b1-2b2c-4edc-8cfe-28f9cadc974b}, ! Handle
  MAT-CC05 8 HW CONCRETE,                 ! Name
  Rough,                                  ! Roughness
  0.20321,                                ! Thickness {m}
  1.311,                                  ! Conductivity {W/m-K}
  2240,                                   ! Density {kg/m3}
  836.8,                                  ! Specific Heat {J/kg-K}
  0.9,                                    ! Thermal Absorptance
  0.7,                                    ! Solar Absorptance
  0.7;                                    ! Visible Absorptance

OS:ComponentCost:LineItem,
  {5eadd33f-cf75-4e4c-8c3c-f98e9206ee27}, ! Handle
  AEDG-SmOffice 2A Ext Slab Unheated - 8in Slab without Carpet, ! Name
  ,                                       ! Type
  Construction,                           ! Line Item Type
  AEDG-SmOffice 2A Ext Slab Unheated - 8in Slab without Carpet, ! Item Name
  ,                                       ! Object End Use Key
  ,                                       ! Quantity {dimensionless}
  45.52,                                  ! Material Cost {$}
  CostPerArea;                            ! Material Cost Units

OS:ComponentData,
  {badabd27-6a0e-45e1-a9b9-344c7970c789}, ! Handle
  Component Data 1,                       ! Name
  {a1bc3fea-683a-4f1b-b0bb-03e51a5e4cd7}, ! UUID
  {a26a2613-b581-42a1-af80-77a9f09d131e}, ! Version UUID
  1363981943,                             ! Creation Timestamp
  1363981943,                             ! Version Timestamp
  {9cb2457f-7d7f-47b7-a4fe-4e445b12be10}, ! Name of Object 1
  {b977c1b1-2b2c-4edc-8cfe-28f9cadc974b}, ! Name of Object 2
  {5eadd33f-cf75-4e4c-8c3c-f98e9206ee27}; ! Name of Object 3

