
OS:Version,
  {4138312f-51bf-47d3-a1dc-f6dfc09d11d4}, ! Handle
  0.9.3;                                  ! Version Identifier

OS:Material,
  {b9016af1-5bcb-456f-89ce-59c6bb582d4a}, ! Handle
  MAT-CC05 8 HW CONCRETE,                 ! Name
  Rough,                                  ! Roughness
  0.20321,                                ! Thickness {m}
  1.311,                                  ! Conductivity {W/m-K}
  2240,                                   ! Density {kg/m3}
  836.8,                                  ! Specific Heat {J/kg-K}
  0.9,                                    ! Thermal Absorptance
  0.7,                                    ! Solar Absorptance
  0.7;                                    ! Visible Absorptance

OS:Construction,
  {d97b7333-1e2a-43b4-a4f0-c288f708e0dc}, ! Handle
  AEDG-SmOffice 2A Ext Slab Unheated - 8in Slab without Carpet, ! Name
  ,                                       ! Surface Rendering Name
  {b9016af1-5bcb-456f-89ce-59c6bb582d4a}; ! Layer 1

OS:ComponentCost:LineItem,
  {45273807-e47e-42db-a2a3-d30629aa378b}, ! Handle
  AEDG-SmOffice 2A Ext Slab Unheated - 8in Slab without Carpet, ! Name
  ,                                       ! Type
  Construction,                           ! Line Item Type
  AEDG-SmOffice 2A Ext Slab Unheated - 8in Slab without Carpet, ! Item Name
  ,                                       ! Object End Use Key
  ,                                       ! Quantity {dimensionless}
  45.52,                                  ! Material Cost {$}
  CostPerArea;                            ! Material Cost Units

