
OS:Version,
  {59987ec2-a0ba-4014-ae2a-a3bab30ccc3c}, ! Handle
  0.9.3;                                  ! Version Identifier

OS:ComponentCost:LineItem,
  {2aa86cb0-cb3f-4c41-928a-8ce77844dfc3}, ! Handle
  90.1-2007 Nonres 2A Window Metal framing all other, ! Name
  ,                                       ! Type
  Construction,                           ! Line Item Type
  90.1-2007 Nonres 2A Window Metal framing all other, ! Item Name
  ,                                       ! Object End Use Key
  ,                                       ! Quantity {dimensionless}
  600.037,                                ! Material Cost {$}
  CostPerArea;                            ! Material Cost Units

OS:Construction,
  {8ed790bc-1e6b-4c2a-876a-59d2402fa0ee}, ! Handle
  90.1-2007 Nonres 2A Window Metal framing all other, ! Name
  ,                                       ! Surface Rendering Name
  {050e2546-f89e-42e2-97c7-697e87d0394b}; ! Layer 1

OS:WindowMaterial:Glazing,
  {050e2546-f89e-42e2-97c7-697e87d0394b}, ! Handle
  Theoretical Glass [170],                ! Name
  SpectralAverage,                        ! Optical Data Type
  ,                                       ! Window Glass Spectral Data Set Name
  0.003,                                  ! Thickness {m}
  0.241851,                               ! Solar Transmittance at Normal Incidence
  0.708149,                               ! Front Side Solar Reflectance at Normal Incidence
  0.708149,                               ! Back Side Solar Reflectance at Normal Incidence
  0.251212,                               ! Visible Transmittance at Normal Incidence
  0.698788,                               ! Front Side Visible Reflectance at Normal Incidence
  0.698788,                               ! Back Side Visible Reflectance at Normal Incidence
  0,                                      ! Infrared Transmittance at Normal Incidence
  0.9,                                    ! Front Side Infrared Hemispherical Emissivity
  0.9,                                    ! Back Side Infrared Hemispherical Emissivity
  0.037738;                               ! Conductivity {W/m-K}

