
OS:Version,
  {6245f5d0-52b0-4dfc-8718-0e476e7671b4}, ! Handle
  0.9.3;                                  ! Version Identifier

OS:Construction,
  {77f04424-af99-48ca-8fcb-f3afb411f1ae}, ! Handle
  90.1-2007 Nonres 2A Window Metal framing all other, ! Name
  ,                                       ! Surface Rendering Name
  {1b37cd55-d5a8-4ae7-a4fc-3cbe2d95291a}; ! Layer 1

OS:WindowMaterial:Glazing,
  {1b37cd55-d5a8-4ae7-a4fc-3cbe2d95291a}, ! Handle
  Theoretical Glass [170],                ! Name
  SpectralAverage,                        ! Optical Data Type
  ,                                       ! Window Glass Spectral Data Set Name
  0.003,                                  ! Thickness {m}
  0.241851,                               ! Solar Transmittance at Normal Incidence
  0.708149,                               ! Front Side Solar Reflectance at Normal Incidence
  0.708149,                               ! Back Side Solar Reflectance at Normal Incidence
  0.251212,                               ! Visible Transmittance at Normal Incidence
  0.698788,                               ! Front Side Visible Reflectance at Normal Incidence
  0.698788,                               ! Back Side Visible Reflectance at Normal Incidence
  0,                                      ! Infrared Transmittance at Normal Incidence
  0.9,                                    ! Front Side Infrared Hemispherical Emissivity
  0.9,                                    ! Back Side Infrared Hemispherical Emissivity
  0.037738;                               ! Conductivity {W/m-K}

OS:ComponentCost:LineItem,
  {595b801a-3bad-4116-81ea-763195205194}, ! Handle
  90.1-2007 Nonres 2A Window Metal framing all other, ! Name
  ,                                       ! Type
  Construction,                           ! Line Item Type
  90.1-2007 Nonres 2A Window Metal framing all other, ! Item Name
  ,                                       ! Object End Use Key
  ,                                       ! Quantity {dimensionless}
  600.037,                                ! Material Cost {$}
  CostPerArea;                            ! Material Cost Units

OS:ComponentData,
  {09a8dcff-da24-4a45-8af9-6d416629918f}, ! Handle
  Component Data 1,                       ! Name
  {adefe427-5651-443b-82ab-8697947bbb78}, ! UUID
  {57854c81-9a70-4ad9-aec7-8cb54cc9ffba}, ! Version UUID
  1363981792,                             ! Creation Timestamp
  1363981792,                             ! Version Timestamp
  {77f04424-af99-48ca-8fcb-f3afb411f1ae}, ! Name of Object 1
  {1b37cd55-d5a8-4ae7-a4fc-3cbe2d95291a}, ! Name of Object 2
  {595b801a-3bad-4116-81ea-763195205194}; ! Name of Object 3

