
OS:Version,
  {12c8acca-48b2-4420-a1c9-bb6874078094}, ! Handle
  0.9.3;                                  ! Version Identifier

OS:Construction,
  {e7eb2ac1-b5db-462b-acc4-6a07b7f6856f}, ! Handle
  90.1-2001 Nonres B20 Ext Slab Unheated - 8in Slab without Carpet, ! Name
  ,                                       ! Surface Rendering Name
  {71ce1a9b-890e-4d09-a08d-706727a47047}; ! Layer 1

OS:Material,
  {71ce1a9b-890e-4d09-a08d-706727a47047}, ! Handle
  MAT-CC05 8 HW CONCRETE,                 ! Name
  Rough,                                  ! Roughness
  0.20321,                                ! Thickness {m}
  1.311,                                  ! Conductivity {W/m-K}
  2240,                                   ! Density {kg/m3}
  836.8,                                  ! Specific Heat {J/kg-K}
  0.9,                                    ! Thermal Absorptance
  0.7,                                    ! Solar Absorptance
  0.7;                                    ! Visible Absorptance

OS:ComponentCost:LineItem,
  {ca561131-30e1-43f0-a975-9ce120c0dfa5}, ! Handle
  90.1-2001 Nonres B20 Ext Slab Unheated - 8in Slab without Carpet, ! Name
  ,                                       ! Type
  Construction,                           ! Line Item Type
  90.1-2001 Nonres B20 Ext Slab Unheated - 8in Slab without Carpet, ! Item Name
  ,                                       ! Object End Use Key
  ,                                       ! Quantity {dimensionless}
  45.52,                                  ! Material Cost {$}
  CostPerArea;                            ! Material Cost Units

OS:ComponentData,
  {23a2ee71-1294-4220-9e25-dbea1e9e4c31}, ! Handle
  Component Data 1,                       ! Name
  {fdb2bce4-bab7-41d6-915e-36fd85821627}, ! UUID
  {9fa9bf6c-99ae-4f32-9463-f71fa7d24bdc}, ! Version UUID
  1363981401,                             ! Creation Timestamp
  1363981401,                             ! Version Timestamp
  {e7eb2ac1-b5db-462b-acc4-6a07b7f6856f}, ! Name of Object 1
  {71ce1a9b-890e-4d09-a08d-706727a47047}, ! Name of Object 2
  {ca561131-30e1-43f0-a975-9ce120c0dfa5}; ! Name of Object 3

