
OS:Version,
  {145adc6a-73f7-4d07-9519-6d85658f7fda}, ! Handle
  0.9.3;                                  ! Version Identifier

OS:Material,
  {9cb3b928-8d22-47f5-8d46-9ca352b7f3c7}, ! Handle
  Roof Insulation [15],                   ! Name
  MediumRough,                            ! Roughness
  0.123565,                               ! Thickness {m}
  0.049,                                  ! Conductivity {W/m-K}
  265,                                    ! Density {kg/m3}
  836.8,                                  ! Specific Heat {J/kg-K}
  0.9,                                    ! Thermal Absorptance
  0.7,                                    ! Solar Absorptance
  0.7;                                    ! Visible Absorptance

OS:ComponentCost:LineItem,
  {3f9bc2ae-4554-4b42-ab52-28d2f7b7b915}, ! Handle
  Title 24-2008 Nonres 10 Roof Metal Building, ! Name
  ,                                       ! Type
  Construction,                           ! Line Item Type
  Title 24-2008 Nonres 10 Roof Metal Building, ! Item Name
  ,                                       ! Object End Use Key
  ,                                       ! Quantity {dimensionless}
  38.21,                                  ! Material Cost {$}
  CostPerArea;                            ! Material Cost Units

OS:Material,
  {a1f07292-8642-4201-8123-bee44ca7952f}, ! Handle
  Metal Roofing [1],                      ! Name
  MediumSmooth,                           ! Roughness
  0.001524,                               ! Thickness {m}
  45.006,                                 ! Conductivity {W/m-K}
  7680,                                   ! Density {kg/m3}
  418.4,                                  ! Specific Heat {J/kg-K}
  0.9,                                    ! Thermal Absorptance
  0.7,                                    ! Solar Absorptance
  0.85;                                   ! Visible Absorptance

OS:Construction,
  {2be7c0da-0a78-49e1-85ac-fcb0783ad89a}, ! Handle
  Title 24-2008 Nonres 10 Roof Metal Building, ! Name
  ,                                       ! Surface Rendering Name
  {a1f07292-8642-4201-8123-bee44ca7952f}, ! Layer 1
  {9cb3b928-8d22-47f5-8d46-9ca352b7f3c7}; ! Layer 2

