
OS:Version,
  {5e56cf72-1867-428e-8931-e6bdc3528335}, ! Handle
  0.9.3;                                  ! Version Identifier

OS:Construction,
  {06139835-1649-4483-958a-e8094eca0b81}, ! Handle
  Title 24-2008 Nonres 10 Roof Metal Building, ! Name
  ,                                       ! Surface Rendering Name
  {5f58accf-baba-42cd-b59b-06f702e30317}, ! Layer 1
  {32bc39d8-dbce-4107-86fe-4514aee40479}; ! Layer 2

OS:Material,
  {5f58accf-baba-42cd-b59b-06f702e30317}, ! Handle
  Metal Roofing [1],                      ! Name
  MediumSmooth,                           ! Roughness
  0.001524,                               ! Thickness {m}
  45.006,                                 ! Conductivity {W/m-K}
  7680,                                   ! Density {kg/m3}
  418.4,                                  ! Specific Heat {J/kg-K}
  0.9,                                    ! Thermal Absorptance
  0.7,                                    ! Solar Absorptance
  0.85;                                   ! Visible Absorptance

OS:Material,
  {32bc39d8-dbce-4107-86fe-4514aee40479}, ! Handle
  Roof Insulation [15],                   ! Name
  MediumRough,                            ! Roughness
  0.123565,                               ! Thickness {m}
  0.049,                                  ! Conductivity {W/m-K}
  265,                                    ! Density {kg/m3}
  836.8,                                  ! Specific Heat {J/kg-K}
  0.9,                                    ! Thermal Absorptance
  0.7,                                    ! Solar Absorptance
  0.7;                                    ! Visible Absorptance

OS:ComponentCost:LineItem,
  {8301caa3-fa1a-499e-9110-2a1a97f1319a}, ! Handle
  Title 24-2008 Nonres 10 Roof Metal Building, ! Name
  ,                                       ! Type
  Construction,                           ! Line Item Type
  Title 24-2008 Nonres 10 Roof Metal Building, ! Item Name
  ,                                       ! Object End Use Key
  ,                                       ! Quantity {dimensionless}
  38.21,                                  ! Material Cost {$}
  CostPerArea;                            ! Material Cost Units

OS:ComponentData,
  {57d59ee2-7a38-4968-8bbe-fb1a7822d5dd}, ! Handle
  Component Data 1,                       ! Name
  {a69524a4-c211-4e3d-9660-1a3f74dd00dc}, ! UUID
  {56f655b8-e3e0-4d12-aa12-3e8602455180}, ! Version UUID
  1363982060,                             ! Creation Timestamp
  1363982060,                             ! Version Timestamp
  {06139835-1649-4483-958a-e8094eca0b81}, ! Name of Object 1
  {5f58accf-baba-42cd-b59b-06f702e30317}, ! Name of Object 2
  {32bc39d8-dbce-4107-86fe-4514aee40479}, ! Name of Object 3
  {8301caa3-fa1a-499e-9110-2a1a97f1319a}; ! Name of Object 4

