
OS:Version,
  {87ea7003-dd4b-47ed-9040-95c4df726ed3}, ! Handle
  0.9.3;                                  ! Version Identifier

OS:Construction,
  {40c2bd0d-d2aa-41a6-aa98-5bc8a951bc19}, ! Handle
  90.1-2004 Res 4B Ext Slab Unheated - 8in Slab with Carpet, ! Name
  ,                                       ! Surface Rendering Name
  {fe0b4198-723e-4c43-b268-11127c6104b6}, ! Layer 1
  {b2be24ea-4fb8-4938-b2d8-1639d35aef26}; ! Layer 2

OS:Material,
  {fe0b4198-723e-4c43-b268-11127c6104b6}, ! Handle
  MAT-CC05 8 HW CONCRETE,                 ! Name
  Rough,                                  ! Roughness
  0.20321,                                ! Thickness {m}
  1.311,                                  ! Conductivity {W/m-K}
  2240,                                   ! Density {kg/m3}
  836.8,                                  ! Specific Heat {J/kg-K}
  0.9,                                    ! Thermal Absorptance
  0.7,                                    ! Solar Absorptance
  0.7;                                    ! Visible Absorptance

OS:Material:NoMass,
  {b2be24ea-4fb8-4938-b2d8-1639d35aef26}, ! Handle
  CP02 CARPET PAD,                        ! Name
  VeryRough,                              ! Roughness
  0.21648,                                ! Thermal Resistance {m2-K/W}
  0.9,                                    ! Thermal Absorptance
  0.7,                                    ! Solar Absorptance
  0.8;                                    ! Visible Absorptance

OS:ComponentCost:LineItem,
  {e69c76b2-e1a4-477d-8032-18e3796309ab}, ! Handle
  90.1-2004 Res 4B Ext Slab Unheated - 8in Slab with Carpet, ! Name
  ,                                       ! Type
  Construction,                           ! Line Item Type
  90.1-2004 Res 4B Ext Slab Unheated - 8in Slab with Carpet, ! Item Name
  ,                                       ! Object End Use Key
  ,                                       ! Quantity {dimensionless}
  45.52,                                  ! Material Cost {$}
  CostPerArea;                            ! Material Cost Units

