
OS:Version,
  {5ff78f08-6431-49fe-939c-fadf321b3c31}, ! Handle
  0.9.3;                                  ! Version Identifier

OS:Construction,
  {d70986f4-fbee-4021-82c0-09d361cbfaba}, ! Handle
  90.1-2004 Res 4B Ext Slab Unheated - 8in Slab with Carpet, ! Name
  ,                                       ! Surface Rendering Name
  {9a29764c-8784-402d-aa16-6f4f457d90ef}, ! Layer 1
  {635dfa62-9372-4482-9385-6240463bd737}; ! Layer 2

OS:Material,
  {9a29764c-8784-402d-aa16-6f4f457d90ef}, ! Handle
  MAT-CC05 8 HW CONCRETE,                 ! Name
  Rough,                                  ! Roughness
  0.20321,                                ! Thickness {m}
  1.311,                                  ! Conductivity {W/m-K}
  2240,                                   ! Density {kg/m3}
  836.8,                                  ! Specific Heat {J/kg-K}
  0.9,                                    ! Thermal Absorptance
  0.7,                                    ! Solar Absorptance
  0.7;                                    ! Visible Absorptance

OS:Material:NoMass,
  {635dfa62-9372-4482-9385-6240463bd737}, ! Handle
  CP02 CARPET PAD,                        ! Name
  VeryRough,                              ! Roughness
  0.21648,                                ! Thermal Resistance {m2-K/W}
  0.9,                                    ! Thermal Absorptance
  0.7,                                    ! Solar Absorptance
  0.8;                                    ! Visible Absorptance

OS:ComponentCost:LineItem,
  {1c964c6f-082b-41bd-9137-65681ea6e170}, ! Handle
  90.1-2004 Res 4B Ext Slab Unheated - 8in Slab with Carpet, ! Name
  ,                                       ! Type
  Construction,                           ! Line Item Type
  90.1-2004 Res 4B Ext Slab Unheated - 8in Slab with Carpet, ! Item Name
  ,                                       ! Object End Use Key
  ,                                       ! Quantity {dimensionless}
  45.52,                                  ! Material Cost {$}
  CostPerArea;                            ! Material Cost Units

OS:ComponentData,
  {cba61d94-671c-4d72-8b24-ad79a6f78bc5}, ! Handle
  Component Data 1,                       ! Name
  {81619f45-0675-4144-a26d-fe8a9475d38a}, ! UUID
  {1c9a0936-e18d-4657-b444-5d5d6ef70780}, ! Version UUID
  1363981739,                             ! Creation Timestamp
  1363981739,                             ! Version Timestamp
  {d70986f4-fbee-4021-82c0-09d361cbfaba}, ! Name of Object 1
  {9a29764c-8784-402d-aa16-6f4f457d90ef}, ! Name of Object 2
  {635dfa62-9372-4482-9385-6240463bd737}, ! Name of Object 3
  {1c964c6f-082b-41bd-9137-65681ea6e170}; ! Name of Object 4

