
OS:Version,
  {c5766f84-f3f0-4290-93f8-4dbb6b057430}, ! Handle
  0.9.3;                                  ! Version Identifier

OS:WindowMaterial:Glazing,
  {1c53d354-5057-4c1a-ac22-0f847312c216}, ! Handle
  Theoretical Glass [146],                ! Name
  SpectralAverage,                        ! Optical Data Type
  ,                                       ! Window Glass Spectral Data Set Name
  0.003,                                  ! Thickness {m}
  0.481761,                               ! Solar Transmittance at Normal Incidence
  0.468239,                               ! Front Side Solar Reflectance at Normal Incidence
  0.468239,                               ! Back Side Solar Reflectance at Normal Incidence
  0.621562,                               ! Visible Transmittance at Normal Incidence
  0.328438,                               ! Front Side Visible Reflectance at Normal Incidence
  0.328438,                               ! Back Side Visible Reflectance at Normal Incidence
  0,                                      ! Infrared Transmittance at Normal Incidence
  0.9,                                    ! Front Side Infrared Hemispherical Emissivity
  0.9,                                    ! Back Side Infrared Hemispherical Emissivity
  0.03026;                                ! Conductivity {W/m-K}

OS:Construction,
  {bdb9b61d-2a2d-458d-863e-6817ec7a2c83}, ! Handle
  90.1-2007 Nonres 6B Skylight without Curb, ! Name
  ,                                       ! Surface Rendering Name
  {1c53d354-5057-4c1a-ac22-0f847312c216}; ! Layer 1

OS:ComponentCost:LineItem,
  {473576b9-36fa-44d4-b82c-9bd039aeb5bd}, ! Handle
  90.1-2007 Nonres 6B Skylight without Curb, ! Name
  ,                                       ! Type
  Construction,                           ! Line Item Type
  90.1-2007 Nonres 6B Skylight without Curb, ! Item Name
  ,                                       ! Object End Use Key
  ,                                       ! Quantity {dimensionless}
  508.47,                                 ! Material Cost {$}
  CostPerArea;                            ! Material Cost Units

