
OS:Version,
  {6eb1c305-5d87-4004-bd70-1d95b1343fe1}, ! Handle
  0.9.3;                                  ! Version Identifier

OS:Construction,
  {763a3564-5a45-46c9-a693-c615368ee80b}, ! Handle
  90.1-2007 Nonres 6B Skylight without Curb, ! Name
  ,                                       ! Surface Rendering Name
  {fada5804-5e8f-4672-9c03-bedc918c8d65}; ! Layer 1

OS:WindowMaterial:Glazing,
  {fada5804-5e8f-4672-9c03-bedc918c8d65}, ! Handle
  Theoretical Glass [146],                ! Name
  SpectralAverage,                        ! Optical Data Type
  ,                                       ! Window Glass Spectral Data Set Name
  0.003,                                  ! Thickness {m}
  0.481761,                               ! Solar Transmittance at Normal Incidence
  0.468239,                               ! Front Side Solar Reflectance at Normal Incidence
  0.468239,                               ! Back Side Solar Reflectance at Normal Incidence
  0.621562,                               ! Visible Transmittance at Normal Incidence
  0.328438,                               ! Front Side Visible Reflectance at Normal Incidence
  0.328438,                               ! Back Side Visible Reflectance at Normal Incidence
  0,                                      ! Infrared Transmittance at Normal Incidence
  0.9,                                    ! Front Side Infrared Hemispherical Emissivity
  0.9,                                    ! Back Side Infrared Hemispherical Emissivity
  0.03026;                                ! Conductivity {W/m-K}

OS:ComponentCost:LineItem,
  {022529cc-72b2-4f65-a4f2-5f38d7dcc338}, ! Handle
  90.1-2007 Nonres 6B Skylight without Curb, ! Name
  ,                                       ! Type
  Construction,                           ! Line Item Type
  90.1-2007 Nonres 6B Skylight without Curb, ! Item Name
  ,                                       ! Object End Use Key
  ,                                       ! Quantity {dimensionless}
  508.47,                                 ! Material Cost {$}
  CostPerArea;                            ! Material Cost Units

OS:ComponentData,
  {a8be6b07-04a0-452b-9a05-34450c3782a2}, ! Handle
  Component Data 1,                       ! Name
  {88271e83-bbba-4bf1-9f97-1566ce00a375}, ! UUID
  {04e1e371-305e-4ae2-89fb-b8c420128274}, ! Version UUID
  1363981817,                             ! Creation Timestamp
  1363981817,                             ! Version Timestamp
  {763a3564-5a45-46c9-a693-c615368ee80b}, ! Name of Object 1
  {fada5804-5e8f-4672-9c03-bedc918c8d65}, ! Name of Object 2
  {022529cc-72b2-4f65-a4f2-5f38d7dcc338}; ! Name of Object 3

