
OS:Version,
  {f4312ed1-26fc-4e1b-b766-2b37a771c67b}, ! Handle
  0.9.3;                                  ! Version Identifier

OS:Material,
  {d1230102-78ed-4338-ab5a-cf7c7a386499}, ! Handle
  Roof Insulation [1],                    ! Name
  MediumRough,                            ! Roughness
  0.123533,                               ! Thickness {m}
  0.049,                                  ! Conductivity {W/m-K}
  265,                                    ! Density {kg/m3}
  836.8,                                  ! Specific Heat {J/kg-K}
  0.9,                                    ! Thermal Absorptance
  0.7,                                    ! Solar Absorptance
  0.7;                                    ! Visible Absorptance

OS:Material,
  {b388631e-7804-4da4-86b4-3ade9c1f16c0}, ! Handle
  Metal Roofing,                          ! Name
  MediumSmooth,                           ! Roughness
  0.001524,                               ! Thickness {m}
  45.006,                                 ! Conductivity {W/m-K}
  7680,                                   ! Density {kg/m3}
  418.4,                                  ! Specific Heat {J/kg-K}
  0.9,                                    ! Thermal Absorptance
  0.7,                                    ! Solar Absorptance
  0.3;                                    ! Visible Absorptance

OS:Construction,
  {ad681cea-3116-4e8f-b55f-fd390da604c4}, ! Handle
  90.1-2001 Nonres B22 Roof Metal Building, ! Name
  ,                                       ! Surface Rendering Name
  {b388631e-7804-4da4-86b4-3ade9c1f16c0}, ! Layer 1
  {d1230102-78ed-4338-ab5a-cf7c7a386499}; ! Layer 2

OS:ComponentCost:LineItem,
  {4bc29821-0824-48d9-9eee-38d327961d64}, ! Handle
  90.1-2001 Nonres B22 Roof Metal Building, ! Name
  ,                                       ! Type
  Construction,                           ! Line Item Type
  90.1-2001 Nonres B22 Roof Metal Building, ! Item Name
  ,                                       ! Object End Use Key
  ,                                       ! Quantity {dimensionless}
  38.206,                                 ! Material Cost {$}
  CostPerArea;                            ! Material Cost Units

