
OS:Version,
  {818cbda2-db9b-4bbe-ad39-7029934bf3e3}, ! Handle
  0.9.3;                                  ! Version Identifier

OS:Construction,
  {8063eb0e-0189-4a16-be91-7b473a836612}, ! Handle
  90.1-2001 Nonres B22 Roof Metal Building, ! Name
  ,                                       ! Surface Rendering Name
  {9fd5cc12-78db-4423-a8f0-68aa3d85aeac}, ! Layer 1
  {65f6968b-de9a-452a-ac6e-e0077adcd7f9}; ! Layer 2

OS:Material,
  {9fd5cc12-78db-4423-a8f0-68aa3d85aeac}, ! Handle
  Metal Roofing,                          ! Name
  MediumSmooth,                           ! Roughness
  0.001524,                               ! Thickness {m}
  45.006,                                 ! Conductivity {W/m-K}
  7680,                                   ! Density {kg/m3}
  418.4,                                  ! Specific Heat {J/kg-K}
  0.9,                                    ! Thermal Absorptance
  0.7,                                    ! Solar Absorptance
  0.3;                                    ! Visible Absorptance

OS:Material,
  {65f6968b-de9a-452a-ac6e-e0077adcd7f9}, ! Handle
  Roof Insulation [1],                    ! Name
  MediumRough,                            ! Roughness
  0.123533,                               ! Thickness {m}
  0.049,                                  ! Conductivity {W/m-K}
  265,                                    ! Density {kg/m3}
  836.8,                                  ! Specific Heat {J/kg-K}
  0.9,                                    ! Thermal Absorptance
  0.7,                                    ! Solar Absorptance
  0.7;                                    ! Visible Absorptance

OS:ComponentCost:LineItem,
  {fc582208-2286-416c-a28d-8a071cc295ea}, ! Handle
  90.1-2001 Nonres B22 Roof Metal Building, ! Name
  ,                                       ! Type
  Construction,                           ! Line Item Type
  90.1-2001 Nonres B22 Roof Metal Building, ! Item Name
  ,                                       ! Object End Use Key
  ,                                       ! Quantity {dimensionless}
  38.206,                                 ! Material Cost {$}
  CostPerArea;                            ! Material Cost Units

OS:ComponentData,
  {d507a321-5e2a-40a2-8ecc-11be072512df}, ! Handle
  Component Data 1,                       ! Name
  {86cfa8be-fbea-4219-b3e1-0b0176730cc8}, ! UUID
  {1764e2d5-aeb3-419c-86f5-e19e63da5f4e}, ! Version UUID
  1363981412,                             ! Creation Timestamp
  1363981412,                             ! Version Timestamp
  {8063eb0e-0189-4a16-be91-7b473a836612}, ! Name of Object 1
  {9fd5cc12-78db-4423-a8f0-68aa3d85aeac}, ! Name of Object 2
  {65f6968b-de9a-452a-ac6e-e0077adcd7f9}, ! Name of Object 3
  {fc582208-2286-416c-a28d-8a071cc295ea}; ! Name of Object 4

