
OS:Version,
  {72cd35ad-6f7e-4eda-9c8d-35f1d2715541}, ! Handle
  0.9.3;                                  ! Version Identifier

OS:WindowMaterial:Glazing,
  {81d4cd14-7a79-4765-a86e-39a6329b8d1e}, ! Handle
  Theoretical Glass [36],                 ! Name
  SpectralAverage,                        ! Optical Data Type
  ,                                       ! Window Glass Spectral Data Set Name
  0.003,                                  ! Thickness {m}
  0.354957,                               ! Solar Transmittance at Normal Incidence
  0.595043,                               ! Front Side Solar Reflectance at Normal Incidence
  0.595043,                               ! Back Side Solar Reflectance at Normal Incidence
  0.376261,                               ! Visible Transmittance at Normal Incidence
  0.573739,                               ! Front Side Visible Reflectance at Normal Incidence
  0.573739,                               ! Back Side Visible Reflectance at Normal Incidence
  0,                                      ! Infrared Transmittance at Normal Incidence
  0.9,                                    ! Front Side Infrared Hemispherical Emissivity
  0.9,                                    ! Back Side Infrared Hemispherical Emissivity
  0.0134755;                              ! Conductivity {W/m-K}

OS:Construction,
  {9e39a188-773c-44c3-9594-9cf401584cea}, ! Handle
  90.1-2001 Nonres B14 Window Fixed,      ! Name
  ,                                       ! Surface Rendering Name
  {81d4cd14-7a79-4765-a86e-39a6329b8d1e}; ! Layer 1

OS:ComponentCost:LineItem,
  {bf8d8e0e-a7a9-4e46-80c4-564efa4a9b81}, ! Handle
  90.1-2001 Nonres B14 Window Fixed,      ! Name
  ,                                       ! Type
  Construction,                           ! Line Item Type
  90.1-2001 Nonres B14 Window Fixed,      ! Item Name
  ,                                       ! Object End Use Key
  ,                                       ! Quantity {dimensionless}
  554.2,                                  ! Material Cost {$}
  CostPerArea;                            ! Material Cost Units

