
OS:Version,
  {d682e975-bf63-40b6-85cd-e6d7037b876d}, ! Handle
  0.9.3;                                  ! Version Identifier

OS:Material,
  {ace50bc2-be47-48b6-82ea-6e2fc58aa086}, ! Handle
  METAL Door Medium 18Ga,                 ! Name
  Smooth,                                 ! Roughness
  0.0013106,                              ! Thickness {m}
  45.3149,                                ! Conductivity {W/m-K}
  7833.03,                                ! Density {kg/m3}
  502.08,                                 ! Specific Heat {J/kg-K}
  0.8,                                    ! Thermal Absorptance
  0.5,                                    ! Solar Absorptance
  0.5;                                    ! Visible Absorptance

OS:ComponentCost:LineItem,
  {40d810d6-b43a-487a-bd07-c3ec058e7047}, ! Handle
  189.1-2009 Nonres 7A Door Non-Swinging, ! Name
  ,                                       ! Type
  Construction,                           ! Line Item Type
  189.1-2009 Nonres 7A Door Non-Swinging, ! Item Name
  ,                                       ! Object End Use Key
  ,                                       ! Quantity {dimensionless}
  0,                                      ! Material Cost {$}
  CostPerArea;                            ! Material Cost Units

OS:Construction,
  {7dbe41b7-708f-43ff-8f39-2d7dbe2a5e24}, ! Handle
  189.1-2009 Nonres 7A Door Non-Swinging, ! Name
  ,                                       ! Surface Rendering Name
  {ace50bc2-be47-48b6-82ea-6e2fc58aa086}, ! Layer 1
  {3130754d-0eae-4261-96c7-bdadd51cfc82}, ! Layer 2
  {c3ba300a-3a25-41dc-a951-f4eba3c30afb}; ! Layer 3

OS:Material:NoMass,
  {3130754d-0eae-4261-96c7-bdadd51cfc82}, ! Handle
  AIR [5],                                ! Name
  Smooth,                                 ! Roughness
  0.440339,                               ! Thermal Resistance {m2-K/W}
  0.8,                                    ! Thermal Absorptance
  0.5,                                    ! Solar Absorptance
  0.5;                                    ! Visible Absorptance

OS:Material,
  {c3ba300a-3a25-41dc-a951-f4eba3c30afb}, ! Handle
  METAL Door Medium 18Ga_2,               ! Name
  Smooth,                                 ! Roughness
  0.0013106,                              ! Thickness {m}
  45.3149,                                ! Conductivity {W/m-K}
  7833.03,                                ! Density {kg/m3}
  502.08,                                 ! Specific Heat {J/kg-K}
  0.8,                                    ! Thermal Absorptance
  0.5,                                    ! Solar Absorptance
  0.5;                                    ! Visible Absorptance

