
OS:Version,
  {9e3bedd6-3517-4d24-be25-ec69259f08d3}, !- Handle
  1.1.0;                                  !- Version Identifier

OS:Construction,
  {9a7de22b-a761-48d5-8e0a-7bf3a744848b}, !- Handle
  Dbl Bronze 3mm/13mm Arg,                !- Name
  ,                                       !- Surface Rendering Name
  {1a56809e-b9dd-4ed0-8f6a-76e21d5dc33c}, !- Layer 1
  {3a112072-8e70-4c6b-ae6f-d0336b2b8b43}, !- Layer 2
  {bc1b764d-f8e4-436d-8028-63a9b7006dd2}; !- Layer 3

OS:WindowMaterial:Glazing,
  {1a56809e-b9dd-4ed0-8f6a-76e21d5dc33c}, !- Handle
  BRONZE 3MM,                             !- Name
  SpectralAverage,                        !- Optical Data Type
  ,                                       !- Window Glass Spectral Data Set Name
  0.003,                                  !- Thickness {m}
  0.645,                                  !- Solar Transmittance at Normal Incidence
  0.062,                                  !- Front Side Solar Reflectance at Normal Incidence
  0.062,                                  !- Back Side Solar Reflectance at Normal Incidence
  0.685,                                  !- Visible Transmittance at Normal Incidence
  0.065,                                  !- Front Side Visible Reflectance at Normal Incidence
  0.065,                                  !- Back Side Visible Reflectance at Normal Incidence
  0,                                      !- Infrared Transmittance at Normal Incidence
  0.84,                                   !- Front Side Infrared Hemispherical Emissivity
  0.84,                                   !- Back Side Infrared Hemispherical Emissivity
  0.9;                                    !- Conductivity {W/m-K}

OS:WindowMaterial:Gas,
  {3a112072-8e70-4c6b-ae6f-d0336b2b8b43}, !- Handle
  ARGON 13MM,                             !- Name
  Argon,                                  !- Gas Type
  0.0127;                                 !- Thickness {m}

OS:WindowMaterial:Glazing,
  {bc1b764d-f8e4-436d-8028-63a9b7006dd2}, !- Handle
  CLEAR 3MM,                              !- Name
  SpectralAverage,                        !- Optical Data Type
  ,                                       !- Window Glass Spectral Data Set Name
  0.003,                                  !- Thickness {m}
  0.837,                                  !- Solar Transmittance at Normal Incidence
  0.075,                                  !- Front Side Solar Reflectance at Normal Incidence
  0.075,                                  !- Back Side Solar Reflectance at Normal Incidence
  0.898,                                  !- Visible Transmittance at Normal Incidence
  0.081,                                  !- Front Side Visible Reflectance at Normal Incidence
  0.081,                                  !- Back Side Visible Reflectance at Normal Incidence
  0,                                      !- Infrared Transmittance at Normal Incidence
  0.84,                                   !- Front Side Infrared Hemispherical Emissivity
  0.84,                                   !- Back Side Infrared Hemispherical Emissivity
  0.9;                                    !- Conductivity {W/m-K}

