
OS:Version,
  {22dd53b9-ede1-4201-a693-330615314900}, ! Handle
  0.9.3;                                  ! Version Identifier

OS:ComponentCost:LineItem,
  {1ff94b2f-774e-4e5e-8ea2-9be779cce448}, ! Handle
  90.1-2001 Nonres B6 Window Fixed,       ! Name
  ,                                       ! Type
  Construction,                           ! Line Item Type
  90.1-2001 Nonres B6 Window Fixed,       ! Item Name
  ,                                       ! Object End Use Key
  ,                                       ! Quantity {dimensionless}
  462.094,                                ! Material Cost {$}
  CostPerArea;                            ! Material Cost Units

OS:Construction,
  {41a1bfb3-50e7-473a-ba12-01d34b587e86}, ! Handle
  90.1-2001 Nonres B6 Window Fixed,       ! Name
  ,                                       ! Surface Rendering Name
  {684fcf7c-91b2-48b1-9da6-cbcb2403b033}; ! Layer 1

OS:WindowMaterial:Glazing,
  {684fcf7c-91b2-48b1-9da6-cbcb2403b033}, ! Handle
  Theoretical Glass [16],                 ! Name
  SpectralAverage,                        ! Optical Data Type
  ,                                       ! Window Glass Spectral Data Set Name
  0.003,                                  ! Thickness {m}
  0.40639,                                ! Solar Transmittance at Normal Incidence
  0.54361,                                ! Front Side Solar Reflectance at Normal Incidence
  0.54361,                                ! Back Side Solar Reflectance at Normal Incidence
  0.446703,                               ! Visible Transmittance at Normal Incidence
  0.503297,                               ! Front Side Visible Reflectance at Normal Incidence
  0.503297,                               ! Back Side Visible Reflectance at Normal Incidence
  0,                                      ! Infrared Transmittance at Normal Incidence
  0.999,                                  ! Front Side Infrared Hemispherical Emissivity
  0.999,                                  ! Back Side Infrared Hemispherical Emissivity
  3.36874;                                ! Conductivity {W/m-K}

