
OS:Version,
  {157fed9c-31d9-4303-bbd2-5271ead4e159}, ! Handle
  0.9.3;                                  ! Version Identifier

OS:Construction,
  {90eed842-96e7-474f-87e0-6c51514b6451}, ! Handle
  Title 24-2008 Nonres 8 Skylight Glass Skylight with Curb, ! Name
  ,                                       ! Surface Rendering Name
  {5a65ef69-e3ce-4943-8737-652fdac587b3}; ! Layer 1

OS:WindowMaterial:Glazing,
  {5a65ef69-e3ce-4943-8737-652fdac587b3}, ! Handle
  Theoretical Glass [679],                ! Name
  SpectralAverage,                        ! Optical Data Type
  ,                                       ! Window Glass Spectral Data Set Name
  0.003,                                  ! Thickness {m}
  0.387604,                               ! Solar Transmittance at Normal Incidence
  0.562396,                               ! Front Side Solar Reflectance at Normal Incidence
  0.562396,                               ! Back Side Solar Reflectance at Normal Incidence
  0.400004,                               ! Visible Transmittance at Normal Incidence
  0.549996,                               ! Front Side Visible Reflectance at Normal Incidence
  0.549996,                               ! Back Side Visible Reflectance at Normal Incidence
  0,                                      ! Infrared Transmittance at Normal Incidence
  0.91,                                   ! Front Side Infrared Hemispherical Emissivity
  0.91,                                   ! Back Side Infrared Hemispherical Emissivity
  0.387053;                               ! Conductivity {W/m-K}

OS:ComponentCost:LineItem,
  {a4257d0b-0eba-4ce9-9223-6d0dcdb700f6}, ! Handle
  Title 24-2008 Nonres 8 Skylight Glass Skylight with Curb, ! Name
  ,                                       ! Type
  Construction,                           ! Line Item Type
  Title 24-2008 Nonres 8 Skylight Glass Skylight with Curb, ! Item Name
  ,                                       ! Object End Use Key
  ,                                       ! Quantity {dimensionless}
  501.798,                                ! Material Cost {$}
  CostPerArea;                            ! Material Cost Units

OS:ComponentData,
  {82c65d8d-048e-4223-be36-c59b43cb5327}, ! Handle
  Component Data 1,                       ! Name
  {f676441c-2366-4a46-aabe-eea701e18e9c}, ! UUID
  {71b672e4-96da-456c-816c-09aec5f97a29}, ! Version UUID
  1363982050,                             ! Creation Timestamp
  1363982050,                             ! Version Timestamp
  {90eed842-96e7-474f-87e0-6c51514b6451}, ! Name of Object 1
  {5a65ef69-e3ce-4943-8737-652fdac587b3}, ! Name of Object 2
  {a4257d0b-0eba-4ce9-9223-6d0dcdb700f6}; ! Name of Object 3

