
OS:Version,
  {f567ed54-cc21-4614-8814-5bce1f7d0f8d}, ! Handle
  0.9.3;                                  ! Version Identifier

OS:Construction,
  {a62acda5-a2fd-4804-b272-b05e4cea417a}, ! Handle
  Title 24-2008 Nonres 8 Skylight Glass Skylight with Curb, ! Name
  ,                                       ! Surface Rendering Name
  {3b90f461-ae72-4ea0-92be-48e0376c4a14}; ! Layer 1

OS:WindowMaterial:Glazing,
  {3b90f461-ae72-4ea0-92be-48e0376c4a14}, ! Handle
  Theoretical Glass [679],                ! Name
  SpectralAverage,                        ! Optical Data Type
  ,                                       ! Window Glass Spectral Data Set Name
  0.003,                                  ! Thickness {m}
  0.387604,                               ! Solar Transmittance at Normal Incidence
  0.562396,                               ! Front Side Solar Reflectance at Normal Incidence
  0.562396,                               ! Back Side Solar Reflectance at Normal Incidence
  0.400004,                               ! Visible Transmittance at Normal Incidence
  0.549996,                               ! Front Side Visible Reflectance at Normal Incidence
  0.549996,                               ! Back Side Visible Reflectance at Normal Incidence
  0,                                      ! Infrared Transmittance at Normal Incidence
  0.91,                                   ! Front Side Infrared Hemispherical Emissivity
  0.91,                                   ! Back Side Infrared Hemispherical Emissivity
  0.387053;                               ! Conductivity {W/m-K}

OS:ComponentCost:LineItem,
  {003a662a-665a-4d66-b08e-c7141a4ce900}, ! Handle
  Title 24-2008 Nonres 8 Skylight Glass Skylight with Curb, ! Name
  ,                                       ! Type
  Construction,                           ! Line Item Type
  Title 24-2008 Nonres 8 Skylight Glass Skylight with Curb, ! Item Name
  ,                                       ! Object End Use Key
  ,                                       ! Quantity {dimensionless}
  501.798,                                ! Material Cost {$}
  CostPerArea;                            ! Material Cost Units

