
OS:Version,
  {0909e84c-3159-49a3-b4de-7cb9f707ef0c}, ! Handle
  0.9.3;                                  ! Version Identifier

OS:Construction,
  {508bc225-9407-4a3f-b766-fe1c2d107940}, ! Handle
  90.1-2004 Nonres 1A Roof Attic and Other, ! Name
  ,                                       ! Surface Rendering Name
  {c241b298-601b-49cb-bdd7-dd6b65bd9c95}, ! Layer 1
  {c3ad21b9-ef4d-477b-bd9d-0ff62354aacc}, ! Layer 2
  {43c9fd7a-0c02-49bc-b9ed-30fb7ca0e02d}, ! Layer 3
  {232f0dfc-5f13-4556-a1cb-88a1f7583c09}; ! Layer 4

OS:Material,
  {c241b298-601b-49cb-bdd7-dd6b65bd9c95}, ! Handle
  Wood Shingles,                          ! Name
  VeryRough,                              ! Roughness
  0.0178,                                 ! Thickness {m}
  0.115,                                  ! Conductivity {W/m-K}
  513,                                    ! Density {kg/m3}
  1255,                                   ! Specific Heat {J/kg-K}
  0.9,                                    ! Thermal Absorptance
  0.78,                                   ! Solar Absorptance
  0.78;                                   ! Visible Absorptance

OS:Material,
  {c3ad21b9-ef4d-477b-bd9d-0ff62354aacc}, ! Handle
  1IN Wood Decking,                       ! Name
  MediumSmooth,                           ! Roughness
  0.0254,                                 ! Thickness {m}
  0.1211,                                 ! Conductivity {W/m-K}
  593,                                    ! Density {kg/m3}
  2510,                                   ! Specific Heat {J/kg-K}
  0.9,                                    ! Thermal Absorptance
  0.78,                                   ! Solar Absorptance
  0.78;                                   ! Visible Absorptance

OS:Material,
  {43c9fd7a-0c02-49bc-b9ed-30fb7ca0e02d}, ! Handle
  Roof Insulation [2],                    ! Name
  MediumRough,                            ! Roughness
  0.221604,                               ! Thickness {m}
  0.049,                                  ! Conductivity {W/m-K}
  265,                                    ! Density {kg/m3}
  836.8,                                  ! Specific Heat {J/kg-K}
  0.9,                                    ! Thermal Absorptance
  0.7,                                    ! Solar Absorptance
  0.7;                                    ! Visible Absorptance

OS:Material,
  {232f0dfc-5f13-4556-a1cb-88a1f7583c09}, ! Handle
  1/2IN Gypsum,                           ! Name
  Smooth,                                 ! Roughness
  0.01271,                                ! Thickness {m}
  0.16,                                   ! Conductivity {W/m-K}
  784.9,                                  ! Density {kg/m3}
  830,                                    ! Specific Heat {J/kg-K}
  0.9,                                    ! Thermal Absorptance
  0.92,                                   ! Solar Absorptance
  0.92;                                   ! Visible Absorptance

OS:ComponentCost:LineItem,
  {2ed27a05-6fbe-4e4e-85bc-5c5b5d2037d0}, ! Handle
  90.1-2004 Nonres 1A Roof Attic and Other, ! Name
  ,                                       ! Type
  Construction,                           ! Line Item Type
  90.1-2004 Nonres 1A Roof Attic and Other, ! Item Name
  ,                                       ! Object End Use Key
  ,                                       ! Quantity {dimensionless}
  33.39,                                  ! Material Cost {$}
  CostPerArea;                            ! Material Cost Units

OS:ComponentData,
  {53d116c2-b97d-4e34-b107-58afe46a9d0b}, ! Handle
  Component Data 1,                       ! Name
  {919345f7-0546-40a0-9a07-78270eea0a69}, ! UUID
  {f05a1b28-3f64-4da3-9435-81d575610b19}, ! Version UUID
  1363981627,                             ! Creation Timestamp
  1363981627,                             ! Version Timestamp
  {508bc225-9407-4a3f-b766-fe1c2d107940}, ! Name of Object 1
  {c241b298-601b-49cb-bdd7-dd6b65bd9c95}, ! Name of Object 2
  {c3ad21b9-ef4d-477b-bd9d-0ff62354aacc}, ! Name of Object 3
  {43c9fd7a-0c02-49bc-b9ed-30fb7ca0e02d}, ! Name of Object 4
  {232f0dfc-5f13-4556-a1cb-88a1f7583c09}, ! Name of Object 5
  {2ed27a05-6fbe-4e4e-85bc-5c5b5d2037d0}; ! Name of Object 6

