
OS:Version,
  {f9156de2-500a-4478-89ba-a684af610350}, ! Handle
  0.9.3;                                  ! Version Identifier

OS:Construction,
  {aea6576a-1f2d-4ad8-ba38-626b3abb0e24}, ! Handle
  90.1-2004 Nonres 1A Roof Attic and Other, ! Name
  ,                                       ! Surface Rendering Name
  {096462c3-8542-4b85-9fa6-68616784d106}, ! Layer 1
  {665c6d1a-cc75-4bac-a076-4bee3fc8b15a}, ! Layer 2
  {617fe87e-adc3-4c05-94b1-b5576f995fed}, ! Layer 3
  {88842fd2-7274-40b2-a8b3-b972dd3dace2}; ! Layer 4

OS:Material,
  {096462c3-8542-4b85-9fa6-68616784d106}, ! Handle
  Wood Shingles,                          ! Name
  VeryRough,                              ! Roughness
  0.0178,                                 ! Thickness {m}
  0.115,                                  ! Conductivity {W/m-K}
  513,                                    ! Density {kg/m3}
  1255,                                   ! Specific Heat {J/kg-K}
  0.9,                                    ! Thermal Absorptance
  0.78,                                   ! Solar Absorptance
  0.78;                                   ! Visible Absorptance

OS:Material,
  {665c6d1a-cc75-4bac-a076-4bee3fc8b15a}, ! Handle
  1IN Wood Decking,                       ! Name
  MediumSmooth,                           ! Roughness
  0.0254,                                 ! Thickness {m}
  0.1211,                                 ! Conductivity {W/m-K}
  593,                                    ! Density {kg/m3}
  2510,                                   ! Specific Heat {J/kg-K}
  0.9,                                    ! Thermal Absorptance
  0.78,                                   ! Solar Absorptance
  0.78;                                   ! Visible Absorptance

OS:Material,
  {617fe87e-adc3-4c05-94b1-b5576f995fed}, ! Handle
  Roof Insulation [2],                    ! Name
  MediumRough,                            ! Roughness
  0.221604,                               ! Thickness {m}
  0.049,                                  ! Conductivity {W/m-K}
  265,                                    ! Density {kg/m3}
  836.8,                                  ! Specific Heat {J/kg-K}
  0.9,                                    ! Thermal Absorptance
  0.7,                                    ! Solar Absorptance
  0.7;                                    ! Visible Absorptance

OS:Material,
  {88842fd2-7274-40b2-a8b3-b972dd3dace2}, ! Handle
  1/2IN Gypsum,                           ! Name
  Smooth,                                 ! Roughness
  0.01271,                                ! Thickness {m}
  0.16,                                   ! Conductivity {W/m-K}
  784.9,                                  ! Density {kg/m3}
  830,                                    ! Specific Heat {J/kg-K}
  0.9,                                    ! Thermal Absorptance
  0.92,                                   ! Solar Absorptance
  0.92;                                   ! Visible Absorptance

OS:ComponentCost:LineItem,
  {344c9ea2-aa7d-44a6-87e8-f9ab2a515f87}, ! Handle
  90.1-2004 Nonres 1A Roof Attic and Other, ! Name
  ,                                       ! Type
  Construction,                           ! Line Item Type
  90.1-2004 Nonres 1A Roof Attic and Other, ! Item Name
  ,                                       ! Object End Use Key
  ,                                       ! Quantity {dimensionless}
  33.39,                                  ! Material Cost {$}
  CostPerArea;                            ! Material Cost Units

