
OS:Version,
  {3f0a33fd-2ca9-41df-b6c6-f8d8850b0333}, ! Handle
  0.9.3;                                  ! Version Identifier

OS:ComponentCost:LineItem,
  {d970b888-63ea-42ad-a2af-cb60b58994f4}, ! Handle
  AEDG K12 Nonres 3A Exposed Floor Mass,  ! Name
  ,                                       ! Type
  Construction,                           ! Line Item Type
  AEDG K12 Nonres 3A Exposed Floor Mass,  ! Item Name
  ,                                       ! Object End Use Key
  ,                                       ! Quantity {dimensionless}
  47.214,                                 ! Material Cost {$}
  CostPerArea;                            ! Material Cost Units

OS:Material,
  {2736249e-0563-49ed-bb4b-ab098de5ffc3}, ! Handle
  MAT-CC05 8 HW CONCRETE,                 ! Name
  Rough,                                  ! Roughness
  0.20321,                                ! Thickness {m}
  1.311,                                  ! Conductivity {W/m-K}
  2240,                                   ! Density {kg/m3}
  836.8,                                  ! Specific Heat {J/kg-K}
  0.9,                                    ! Thermal Absorptance
  0.7,                                    ! Solar Absorptance
  0.7;                                    ! Visible Absorptance

OS:Material,
  {c239b9f7-deaa-4c74-a80b-7057cccde4ef}, ! Handle
  Floor Insulation [1],                   ! Name
  MediumRough,                            ! Roughness
  0.0463846,                              ! Thickness {m}
  0.045,                                  ! Conductivity {W/m-K}
  265,                                    ! Density {kg/m3}
  836.8,                                  ! Specific Heat {J/kg-K}
  0.9,                                    ! Thermal Absorptance
  0.7,                                    ! Solar Absorptance
  0.7;                                    ! Visible Absorptance

OS:Construction,
  {b4c52b46-6e2e-4669-a3fb-31fa7d4b73a2}, ! Handle
  AEDG K12 Nonres 3A Exposed Floor Mass,  ! Name
  ,                                       ! Surface Rendering Name
  {c239b9f7-deaa-4c74-a80b-7057cccde4ef}, ! Layer 1
  {2736249e-0563-49ed-bb4b-ab098de5ffc3}, ! Layer 2
  {0c801203-d62b-449d-99b4-b0d02287d780}; ! Layer 3

OS:Material:NoMass,
  {0c801203-d62b-449d-99b4-b0d02287d780}, ! Handle
  CP02 CARPET PAD EF,                     ! Name
  VeryRough,                              ! Roughness
  0.21648,                                ! Thermal Resistance {m2-K/W}
  0.9,                                    ! Thermal Absorptance
  0.7,                                    ! Solar Absorptance
  0.8;                                    ! Visible Absorptance

