
OS:Version,
  {a229d4bf-aed7-4061-8f3b-23c5feafee1c}, ! Handle
  0.9.3;                                  ! Version Identifier

OS:Construction,
  {00045777-59f4-421e-94d5-70bcfde8d2c0}, ! Handle
  Title 24-2008 Nonres 5 Skylight Plastic Skylight with Curb, ! Name
  ,                                       ! Surface Rendering Name
  {68091746-8a52-4b99-ae9d-9d9c70065c21}; ! Layer 1

OS:WindowMaterial:Glazing,
  {68091746-8a52-4b99-ae9d-9d9c70065c21}, ! Handle
  Theoretical Glass [674],                ! Name
  SpectralAverage,                        ! Optical Data Type
  ,                                       ! Window Glass Spectral Data Set Name
  0.003,                                  ! Thickness {m}
  0.676633,                               ! Solar Transmittance at Normal Incidence
  0.273367,                               ! Front Side Solar Reflectance at Normal Incidence
  0.273367,                               ! Back Side Solar Reflectance at Normal Incidence
  0.689609,                               ! Visible Transmittance at Normal Incidence
  0.260391,                               ! Front Side Visible Reflectance at Normal Incidence
  0.260391,                               ! Back Side Visible Reflectance at Normal Incidence
  0,                                      ! Infrared Transmittance at Normal Incidence
  0.91,                                   ! Front Side Infrared Hemispherical Emissivity
  0.91,                                   ! Back Side Infrared Hemispherical Emissivity
  0.387053;                               ! Conductivity {W/m-K}

OS:ComponentCost:LineItem,
  {2a55b5d6-e414-4267-9acf-acc0a513691e}, ! Handle
  Title 24-2008 Nonres 5 Skylight Plastic Skylight with Curb, ! Name
  ,                                       ! Type
  Construction,                           ! Line Item Type
  Title 24-2008 Nonres 5 Skylight Plastic Skylight with Curb, ! Item Name
  ,                                       ! Object End Use Key
  ,                                       ! Quantity {dimensionless}
  480.601,                                ! Material Cost {$}
  CostPerArea;                            ! Material Cost Units

OS:ComponentData,
  {2808e301-9862-4bd3-9fbd-1ba2bbd0b3af}, ! Handle
  Component Data 1,                       ! Name
  {0a2599a6-0175-477f-87c7-8ad88886d556}, ! UUID
  {5967510a-d736-41c8-93ab-a83102639690}, ! Version UUID
  1363982025,                             ! Creation Timestamp
  1363982025,                             ! Version Timestamp
  {00045777-59f4-421e-94d5-70bcfde8d2c0}, ! Name of Object 1
  {68091746-8a52-4b99-ae9d-9d9c70065c21}, ! Name of Object 2
  {2a55b5d6-e414-4267-9acf-acc0a513691e}; ! Name of Object 3

