
OS:Version,
  {39d01c13-5699-4acf-8242-55ab87fab931}, !- Handle
  1.1.0;                                  !- Version Identifier

OS:Construction,
  {bfe6f0cd-1538-4d75-95d2-c9ab16c9ba3a}, !- Handle
  Dbl Ref-D Clr 6mm/13mm Arg,             !- Name
  ,                                       !- Surface Rendering Name
  {8709dc27-8141-4ad8-9e61-e0b23d4b7c60}, !- Layer 1
  {14ddf886-4824-4cfd-bb5e-b7937e62344a}, !- Layer 2
  {10558b17-9bd6-4846-b98d-b7b3810ea675}; !- Layer 3

OS:WindowMaterial:Glazing,
  {8709dc27-8141-4ad8-9e61-e0b23d4b7c60}, !- Handle
  REF D CLEAR 6MM,                        !- Name
  SpectralAverage,                        !- Optical Data Type
  ,                                       !- Window Glass Spectral Data Set Name
  0.006,                                  !- Thickness {m}
  0.429,                                  !- Solar Transmittance at Normal Incidence
  0.308,                                  !- Front Side Solar Reflectance at Normal Incidence
  0.379,                                  !- Back Side Solar Reflectance at Normal Incidence
  0.334,                                  !- Visible Transmittance at Normal Incidence
  0.453,                                  !- Front Side Visible Reflectance at Normal Incidence
  0.505,                                  !- Back Side Visible Reflectance at Normal Incidence
  0,                                      !- Infrared Transmittance at Normal Incidence
  0.84,                                   !- Front Side Infrared Hemispherical Emissivity
  0.82,                                   !- Back Side Infrared Hemispherical Emissivity
  0.9;                                    !- Conductivity {W/m-K}

OS:WindowMaterial:Gas,
  {14ddf886-4824-4cfd-bb5e-b7937e62344a}, !- Handle
  ARGON 13MM,                             !- Name
  Argon,                                  !- Gas Type
  0.0127;                                 !- Thickness {m}

OS:WindowMaterial:Glazing,
  {10558b17-9bd6-4846-b98d-b7b3810ea675}, !- Handle
  CLEAR 6MM,                              !- Name
  SpectralAverage,                        !- Optical Data Type
  ,                                       !- Window Glass Spectral Data Set Name
  0.006,                                  !- Thickness {m}
  0.775,                                  !- Solar Transmittance at Normal Incidence
  0.071,                                  !- Front Side Solar Reflectance at Normal Incidence
  0.071,                                  !- Back Side Solar Reflectance at Normal Incidence
  0.881,                                  !- Visible Transmittance at Normal Incidence
  0.08,                                   !- Front Side Visible Reflectance at Normal Incidence
  0.08,                                   !- Back Side Visible Reflectance at Normal Incidence
  0,                                      !- Infrared Transmittance at Normal Incidence
  0.84,                                   !- Front Side Infrared Hemispherical Emissivity
  0.84,                                   !- Back Side Infrared Hemispherical Emissivity
  0.9;                                    !- Conductivity {W/m-K}

