
OS:Version,
  {85a6fb00-8ee8-4d47-91a1-aa48db6aa72c}, ! Handle
  0.9.3;                                  ! Version Identifier

OS:Material,
  {4cc89056-ec12-4d6d-a01c-39f6eab23f52}, ! Handle
  Wall Insulation [13],                   ! Name
  MediumRough,                            ! Roughness
  0.140713,                               ! Thickness {m}
  0.045,                                  ! Conductivity {W/m-K}
  265,                                    ! Density {kg/m3}
  836.8,                                  ! Specific Heat {J/kg-K}
  0.9,                                    ! Thermal Absorptance
  0.7,                                    ! Solar Absorptance
  0.7;                                    ! Visible Absorptance

OS:Material,
  {437acb64-d956-4640-8e14-d998cb941474}, ! Handle
  1/2IN Gypsum,                           ! Name
  Smooth,                                 ! Roughness
  0.01271,                                ! Thickness {m}
  0.16,                                   ! Conductivity {W/m-K}
  784.9,                                  ! Density {kg/m3}
  830,                                    ! Specific Heat {J/kg-K}
  0.9,                                    ! Thermal Absorptance
  0.92,                                   ! Solar Absorptance
  0.92;                                   ! Visible Absorptance

OS:ComponentCost:LineItem,
  {0e91f6b9-87cd-412e-b9d4-e1782ebf8767}, ! Handle
  90.1-2001 Res B24 Ext Wall Wood-Framed and Other, ! Name
  ,                                       ! Type
  Construction,                           ! Line Item Type
  90.1-2001 Res B24 Ext Wall Wood-Framed and Other, ! Item Name
  ,                                       ! Object End Use Key
  ,                                       ! Quantity {dimensionless}
  80.638,                                 ! Material Cost {$}
  CostPerArea;                            ! Material Cost Units

OS:Construction,
  {f00e9e48-6537-4dee-a039-2a3da4536e2c}, ! Handle
  90.1-2001 Res B24 Ext Wall Wood-Framed and Other, ! Name
  ,                                       ! Surface Rendering Name
  {29e27fc0-1ad6-42df-8dfa-4f1efe42427a}, ! Layer 1
  {4cc89056-ec12-4d6d-a01c-39f6eab23f52}, ! Layer 2
  {437acb64-d956-4640-8e14-d998cb941474}; ! Layer 3

OS:Material,
  {29e27fc0-1ad6-42df-8dfa-4f1efe42427a}, ! Handle
  Wood Siding,                            ! Name
  MediumSmooth,                           ! Roughness
  0.01,                                   ! Thickness {m}
  0.11,                                   ! Conductivity {W/m-K}
  544.62,                                 ! Density {kg/m3}
  1210,                                   ! Specific Heat {J/kg-K}
  0.9,                                    ! Thermal Absorptance
  0.78,                                   ! Solar Absorptance
  0.78;                                   ! Visible Absorptance

