
OS:Version,
  {6aae4e7b-fdad-425e-9063-c89773d9f622}, ! Handle
  0.9.3;                                  ! Version Identifier

OS:WindowMaterial:Glazing,
  {4eeea82d-c1a4-4201-8d09-cc80e7926406}, ! Handle
  Theoretical Glass [71],                 ! Name
  SpectralAverage,                        ! Optical Data Type
  ,                                       ! Window Glass Spectral Data Set Name
  0.003,                                  ! Thickness {m}
  0.415593,                               ! Solar Transmittance at Normal Incidence
  0.534407,                               ! Front Side Solar Reflectance at Normal Incidence
  0.534407,                               ! Back Side Solar Reflectance at Normal Incidence
  0.429741,                               ! Visible Transmittance at Normal Incidence
  0.520259,                               ! Front Side Visible Reflectance at Normal Incidence
  0.520259,                               ! Back Side Visible Reflectance at Normal Incidence
  0,                                      ! Infrared Transmittance at Normal Incidence
  0.999,                                  ! Front Side Infrared Hemispherical Emissivity
  0.999,                                  ! Back Side Infrared Hemispherical Emissivity
  9.36219;                                ! Conductivity {W/m-K}

OS:Construction,
  {52b46b89-6eb1-464d-8419-66b672937f7d}, ! Handle
  90.1-2001 Res B5 Window Fixed,          ! Name
  ,                                       ! Surface Rendering Name
  {4eeea82d-c1a4-4201-8d09-cc80e7926406}; ! Layer 1

OS:ComponentCost:LineItem,
  {b7851cea-620a-4c4d-a843-7d48600c5d49}, ! Handle
  90.1-2001 Res B5 Window Fixed,          ! Name
  ,                                       ! Type
  Construction,                           ! Line Item Type
  90.1-2001 Res B5 Window Fixed,          ! Item Name
  ,                                       ! Object End Use Key
  ,                                       ! Quantity {dimensionless}
  486.627,                                ! Material Cost {$}
  CostPerArea;                            ! Material Cost Units

