
OS:Version,
  {d89db486-7632-4beb-9abc-f290de6d3fde}, ! Handle
  0.9.3;                                  ! Version Identifier

OS:ComponentCost:LineItem,
  {fcb030e6-e420-47a4-b4bc-a9bf4e84ace7}, ! Handle
  90.1-2007 Nonres 1A Ext Wall Metal Building, ! Name
  ,                                       ! Type
  Construction,                           ! Line Item Type
  90.1-2007 Nonres 1A Ext Wall Metal Building, ! Item Name
  ,                                       ! Object End Use Key
  ,                                       ! Quantity {dimensionless}
  98.78,                                  ! Material Cost {$}
  CostPerArea;                            ! Material Cost Units

OS:Material,
  {032d11f9-8fdf-48ef-813c-5fba5b072317}, ! Handle
  Metal Siding,                           ! Name
  Smooth,                                 ! Roughness
  0.0015,                                 ! Thickness {m}
  44.96,                                  ! Conductivity {W/m-K}
  7688.86,                                ! Density {kg/m3}
  410,                                    ! Specific Heat {J/kg-K}
  0.9,                                    ! Thermal Absorptance
  0.2,                                    ! Solar Absorptance
  0.2;                                    ! Visible Absorptance

OS:Construction,
  {e949b3c3-face-4f2c-9818-9b2ecb5f6dcc}, ! Handle
  90.1-2007 Nonres 1A Ext Wall Metal Building, ! Name
  ,                                       ! Surface Rendering Name
  {032d11f9-8fdf-48ef-813c-5fba5b072317}, ! Layer 1
  {74ffa470-b566-46cd-89cf-75e185bb2029}, ! Layer 2
  {c5f4bcf8-cf28-4fa9-9761-20db82de7a7c}; ! Layer 3

OS:Material,
  {74ffa470-b566-46cd-89cf-75e185bb2029}, ! Handle
  Wall Insulation,                        ! Name
  MediumRough,                            ! Roughness
  0.0598725,                              ! Thickness {m}
  0.045,                                  ! Conductivity {W/m-K}
  265,                                    ! Density {kg/m3}
  836.8,                                  ! Specific Heat {J/kg-K}
  0.9,                                    ! Thermal Absorptance
  0.7,                                    ! Solar Absorptance
  0.7;                                    ! Visible Absorptance

OS:Material,
  {c5f4bcf8-cf28-4fa9-9761-20db82de7a7c}, ! Handle
  1/2IN Gypsum,                           ! Name
  Smooth,                                 ! Roughness
  0.01271,                                ! Thickness {m}
  0.16,                                   ! Conductivity {W/m-K}
  784.9,                                  ! Density {kg/m3}
  830,                                    ! Specific Heat {J/kg-K}
  0.9,                                    ! Thermal Absorptance
  0.92,                                   ! Solar Absorptance
  0.92;                                   ! Visible Absorptance

