
OS:Version,
  {cf450605-13e1-4c36-91a2-2c1f32937d41}, ! Handle
  0.9.3;                                  ! Version Identifier

OS:Material,
  {2d50c047-b341-46d2-85c4-00dad3e35ede}, ! Handle
  Wall Insulation [2],                    ! Name
  MediumRough,                            ! Roughness
  0.0746874,                              ! Thickness {m}
  0.045,                                  ! Conductivity {W/m-K}
  265,                                    ! Density {kg/m3}
  836.8,                                  ! Specific Heat {J/kg-K}
  0.9,                                    ! Thermal Absorptance
  0.7,                                    ! Solar Absorptance
  0.7;                                    ! Visible Absorptance

OS:ComponentCost:LineItem,
  {4eff79a8-c0c0-4d13-91a3-c6671e7ec38f}, ! Handle
  90.1-2004 Nonres 3A Ext Wall Wood-Framed and Other, ! Name
  ,                                       ! Type
  Construction,                           ! Line Item Type
  90.1-2004 Nonres 3A Ext Wall Wood-Framed and Other, ! Item Name
  ,                                       ! Object End Use Key
  ,                                       ! Quantity {dimensionless}
  73.056,                                 ! Material Cost {$}
  CostPerArea;                            ! Material Cost Units

OS:Construction,
  {003e05dd-219b-49d5-afe7-ed399ca2ce3c}, ! Handle
  90.1-2004 Nonres 3A Ext Wall Wood-Framed and Other, ! Name
  ,                                       ! Surface Rendering Name
  {524dc796-6659-4d1a-adbf-bbbe1d801ab9}, ! Layer 1
  {2d50c047-b341-46d2-85c4-00dad3e35ede}, ! Layer 2
  {c6d6c002-9a78-4a9b-bc3e-d23e64d11f14}; ! Layer 3

OS:Material,
  {524dc796-6659-4d1a-adbf-bbbe1d801ab9}, ! Handle
  Wood Siding,                            ! Name
  MediumSmooth,                           ! Roughness
  0.01,                                   ! Thickness {m}
  0.11,                                   ! Conductivity {W/m-K}
  544.62,                                 ! Density {kg/m3}
  1210,                                   ! Specific Heat {J/kg-K}
  0.9,                                    ! Thermal Absorptance
  0.78,                                   ! Solar Absorptance
  0.78;                                   ! Visible Absorptance

OS:Material,
  {c6d6c002-9a78-4a9b-bc3e-d23e64d11f14}, ! Handle
  1/2IN Gypsum,                           ! Name
  Smooth,                                 ! Roughness
  0.01271,                                ! Thickness {m}
  0.16,                                   ! Conductivity {W/m-K}
  784.9,                                  ! Density {kg/m3}
  830,                                    ! Specific Heat {J/kg-K}
  0.9,                                    ! Thermal Absorptance
  0.92,                                   ! Solar Absorptance
  0.92;                                   ! Visible Absorptance

