
OS:Version,
  {123d67c2-3a1c-4f99-b391-0391ce049999}, ! Handle
  0.9.3;                                  ! Version Identifier

OS:Material,
  {e8076acd-5317-4300-93f0-5f234959cf7e}, ! Handle
  MAT-CC05 4 HW CONCRETE,                 ! Name
  Rough,                                  ! Roughness
  0.1016,                                 ! Thickness {m}
  1.311,                                  ! Conductivity {W/m-K}
  2240,                                   ! Density {kg/m3}
  836.8,                                  ! Specific Heat {J/kg-K}
  0.9,                                    ! Thermal Absorptance
  0.7,                                    ! Solar Absorptance
  0.7;                                    ! Visible Absorptance

OS:Construction,
  {ab0128be-6399-4962-9364-19d26258cbc0}, ! Handle
  90.1-2001 Res B23 Ext Slab Unheated - 4in Slab without Carpet, ! Name
  ,                                       ! Surface Rendering Name
  {e8076acd-5317-4300-93f0-5f234959cf7e}; ! Layer 1

OS:ComponentCost:LineItem,
  {ea227e55-142d-495b-9c93-3332d67ba409}, ! Handle
  90.1-2001 Res B23 Ext Slab Unheated - 4in Slab without Carpet, ! Name
  ,                                       ! Type
  Construction,                           ! Line Item Type
  90.1-2001 Res B23 Ext Slab Unheated - 4in Slab without Carpet, ! Item Name
  ,                                       ! Object End Use Key
  ,                                       ! Quantity {dimensionless}
  45.52,                                  ! Material Cost {$}
  CostPerArea;                            ! Material Cost Units

