
OS:Version,
  {7a838318-58ed-40db-9d59-7ae3c2e751a6}, ! Handle
  0.9.3;                                  ! Version Identifier

OS:Material:NoMass,
  {f8b2f90a-b7a0-43c6-b676-236f5950b65e}, ! Handle
  MAT-SHEATH,                             ! Name
  Rough,                                  ! Roughness
  0.36256,                                ! Thermal Resistance {m2-K/W}
  0.9,                                    ! Thermal Absorptance
  0.7,                                    ! Solar Absorptance
  0.7;                                    ! Visible Absorptance

OS:Material,
  {e8b873c8-5f7c-4dbd-8784-0f98b25d3520}, ! Handle
  Wall Insulation [10],                   ! Name
  MediumRough,                            ! Roughness
  0.0971136,                              ! Thickness {m}
  0.045,                                  ! Conductivity {W/m-K}
  265,                                    ! Density {kg/m3}
  836.8,                                  ! Specific Heat {J/kg-K}
  0.9,                                    ! Thermal Absorptance
  0.7,                                    ! Solar Absorptance
  0.7;                                    ! Visible Absorptance

OS:ComponentCost:LineItem,
  {22005bed-18a9-4ad8-b4a0-401983dd019c}, ! Handle
  90.1-2007 Nonres 6B Ext Wall Steel-Framed, ! Name
  ,                                       ! Type
  Construction,                           ! Line Item Type
  90.1-2007 Nonres 6B Ext Wall Steel-Framed, ! Item Name
  ,                                       ! Object End Use Key
  ,                                       ! Quantity {dimensionless}
  94.657,                                 ! Material Cost {$}
  CostPerArea;                            ! Material Cost Units

OS:Construction,
  {a77e934c-9ede-4ebc-9000-95d39f7ab7aa}, ! Handle
  90.1-2007 Nonres 6B Ext Wall Steel-Framed, ! Name
  ,                                       ! Surface Rendering Name
  {f8b2f90a-b7a0-43c6-b676-236f5950b65e}, ! Layer 1
  {e8b873c8-5f7c-4dbd-8784-0f98b25d3520}, ! Layer 2
  {61ec163a-4496-4b07-a880-ef5345b58681}; ! Layer 3

OS:Material,
  {61ec163a-4496-4b07-a880-ef5345b58681}, ! Handle
  1/2IN Gypsum,                           ! Name
  Smooth,                                 ! Roughness
  0.01271,                                ! Thickness {m}
  0.16,                                   ! Conductivity {W/m-K}
  784.9,                                  ! Density {kg/m3}
  830,                                    ! Specific Heat {J/kg-K}
  0.9,                                    ! Thermal Absorptance
  0.92,                                   ! Solar Absorptance
  0.92;                                   ! Visible Absorptance

