
OS:Version,
  {0bf1a5c9-edf1-4625-b778-cee322b51835}, ! Handle
  0.9.3;                                  ! Version Identifier

OS:Construction,
  {8b754264-88a0-4f26-992f-09c18a268467}, ! Handle
  90.1-2007 Nonres 6B Ext Wall Steel-Framed, ! Name
  ,                                       ! Surface Rendering Name
  {8a918f31-5610-466f-b87c-80f3a3219c85}, ! Layer 1
  {476ed68a-33e9-437f-a5cf-4ee368ee31f4}, ! Layer 2
  {3adb9bec-6683-4771-a653-2b04a2e86759}; ! Layer 3

OS:Material:NoMass,
  {8a918f31-5610-466f-b87c-80f3a3219c85}, ! Handle
  MAT-SHEATH,                             ! Name
  Rough,                                  ! Roughness
  0.36256,                                ! Thermal Resistance {m2-K/W}
  0.9,                                    ! Thermal Absorptance
  0.7,                                    ! Solar Absorptance
  0.7;                                    ! Visible Absorptance

OS:Material,
  {476ed68a-33e9-437f-a5cf-4ee368ee31f4}, ! Handle
  Wall Insulation [10],                   ! Name
  MediumRough,                            ! Roughness
  0.0971136,                              ! Thickness {m}
  0.045,                                  ! Conductivity {W/m-K}
  265,                                    ! Density {kg/m3}
  836.8,                                  ! Specific Heat {J/kg-K}
  0.9,                                    ! Thermal Absorptance
  0.7,                                    ! Solar Absorptance
  0.7;                                    ! Visible Absorptance

OS:Material,
  {3adb9bec-6683-4771-a653-2b04a2e86759}, ! Handle
  1/2IN Gypsum,                           ! Name
  Smooth,                                 ! Roughness
  0.01271,                                ! Thickness {m}
  0.16,                                   ! Conductivity {W/m-K}
  784.9,                                  ! Density {kg/m3}
  830,                                    ! Specific Heat {J/kg-K}
  0.9,                                    ! Thermal Absorptance
  0.92,                                   ! Solar Absorptance
  0.92;                                   ! Visible Absorptance

OS:ComponentCost:LineItem,
  {1a1af6b2-2efd-4a6d-b067-6135ea36d6ba}, ! Handle
  90.1-2007 Nonres 6B Ext Wall Steel-Framed, ! Name
  ,                                       ! Type
  Construction,                           ! Line Item Type
  90.1-2007 Nonres 6B Ext Wall Steel-Framed, ! Item Name
  ,                                       ! Object End Use Key
  ,                                       ! Quantity {dimensionless}
  94.657,                                 ! Material Cost {$}
  CostPerArea;                            ! Material Cost Units

OS:ComponentData,
  {4f57034a-e762-430b-bf76-5e2fc3e4d254}, ! Handle
  Component Data 1,                       ! Name
  {4dda529b-51bd-4b58-9db2-66ff7bae8c77}, ! UUID
  {28781d39-5bb2-4ad8-9cb3-3f6e127cab5b}, ! Version UUID
  1363981813,                             ! Creation Timestamp
  1363981813,                             ! Version Timestamp
  {8b754264-88a0-4f26-992f-09c18a268467}, ! Name of Object 1
  {8a918f31-5610-466f-b87c-80f3a3219c85}, ! Name of Object 2
  {476ed68a-33e9-437f-a5cf-4ee368ee31f4}, ! Name of Object 3
  {3adb9bec-6683-4771-a653-2b04a2e86759}, ! Name of Object 4
  {1a1af6b2-2efd-4a6d-b067-6135ea36d6ba}; ! Name of Object 5

