
OS:Version,
  {80b3f9fe-c25d-4deb-9662-a2b8f2c23b0c}, ! Handle
  0.9.3;                                  ! Version Identifier

OS:Construction,
  {4171d1d6-6de5-449a-92dc-7a786298222b}, ! Handle
  189.1-2009 Nonres 2A Skylight without Curb, ! Name
  ,                                       ! Surface Rendering Name
  {64382ef5-0526-4911-9f52-7121189963f2}; ! Layer 1

OS:WindowMaterial:Glazing,
  {64382ef5-0526-4911-9f52-7121189963f2}, ! Handle
  Theoretical Glass [196],                ! Name
  SpectralAverage,                        ! Optical Data Type
  ,                                       ! Window Glass Spectral Data Set Name
  0.003,                                  ! Thickness {m}
  0.172982,                               ! Solar Transmittance at Normal Incidence
  0.777018,                               ! Front Side Solar Reflectance at Normal Incidence
  0.777018,                               ! Back Side Solar Reflectance at Normal Incidence
  0.242683,                               ! Visible Transmittance at Normal Incidence
  0.707317,                               ! Front Side Visible Reflectance at Normal Incidence
  0.707317,                               ! Back Side Visible Reflectance at Normal Incidence
  0,                                      ! Infrared Transmittance at Normal Incidence
  0.9,                                    ! Front Side Infrared Hemispherical Emissivity
  0.9,                                    ! Back Side Infrared Hemispherical Emissivity
  0.0207247;                              ! Conductivity {W/m-K}

OS:ComponentCost:LineItem,
  {7ce55d35-ddb7-40b4-8ec4-2f9e83284d62}, ! Handle
  189.1-2009 Nonres 2A Skylight without Curb, ! Name
  ,                                       ! Type
  Construction,                           ! Line Item Type
  189.1-2009 Nonres 2A Skylight without Curb, ! Item Name
  ,                                       ! Object End Use Key
  ,                                       ! Quantity {dimensionless}
  572.169,                                ! Material Cost {$}
  CostPerArea;                            ! Material Cost Units

OS:ComponentData,
  {36d7a981-371a-416f-8ad1-e66c8848a2c3}, ! Handle
  Component Data 1,                       ! Name
  {c6aa017a-682f-4b26-bb7c-991adecd9d5b}, ! UUID
  {f7a4f088-9097-45ad-b131-9a49052b9284}, ! Version UUID
  1363979825,                             ! Creation Timestamp
  1363979825,                             ! Version Timestamp
  {4171d1d6-6de5-449a-92dc-7a786298222b}, ! Name of Object 1
  {64382ef5-0526-4911-9f52-7121189963f2}, ! Name of Object 2
  {7ce55d35-ddb7-40b4-8ec4-2f9e83284d62}; ! Name of Object 3

