
OS:Version,
  {9529d63f-eb41-4fc0-a63d-1c322980a4d1}, ! Handle
  0.9.3;                                  ! Version Identifier

OS:WindowMaterial:Glazing,
  {5744bdab-671e-44fc-969a-da04aad8a2f9}, ! Handle
  Theoretical Glass [196],                ! Name
  SpectralAverage,                        ! Optical Data Type
  ,                                       ! Window Glass Spectral Data Set Name
  0.003,                                  ! Thickness {m}
  0.172982,                               ! Solar Transmittance at Normal Incidence
  0.777018,                               ! Front Side Solar Reflectance at Normal Incidence
  0.777018,                               ! Back Side Solar Reflectance at Normal Incidence
  0.242683,                               ! Visible Transmittance at Normal Incidence
  0.707317,                               ! Front Side Visible Reflectance at Normal Incidence
  0.707317,                               ! Back Side Visible Reflectance at Normal Incidence
  0,                                      ! Infrared Transmittance at Normal Incidence
  0.9,                                    ! Front Side Infrared Hemispherical Emissivity
  0.9,                                    ! Back Side Infrared Hemispherical Emissivity
  0.0207247;                              ! Conductivity {W/m-K}

OS:ComponentCost:LineItem,
  {86c31f1c-cb05-4843-a857-c90f2080ce4a}, ! Handle
  189.1-2009 Nonres 2A Skylight without Curb, ! Name
  ,                                       ! Type
  Construction,                           ! Line Item Type
  189.1-2009 Nonres 2A Skylight without Curb, ! Item Name
  ,                                       ! Object End Use Key
  ,                                       ! Quantity {dimensionless}
  572.169,                                ! Material Cost {$}
  CostPerArea;                            ! Material Cost Units

OS:Construction,
  {e2c73978-2ecf-49b6-98e0-84f564070d09}, ! Handle
  189.1-2009 Nonres 2A Skylight without Curb, ! Name
  ,                                       ! Surface Rendering Name
  {5744bdab-671e-44fc-969a-da04aad8a2f9}; ! Layer 1

