
OS:Version,
  {993105ca-490a-4363-acc7-243491ce8eba}, ! Handle
  0.9.3;                                  ! Version Identifier

OS:ComponentCost:LineItem,
  {3ebfbab9-7f92-4fb0-97e1-3ed81daee974}, ! Handle
  90.1-2001 Nonres B12 Ext Wall Mass,     ! Name
  ,                                       ! Type
  Construction,                           ! Line Item Type
  90.1-2001 Nonres B12 Ext Wall Mass,     ! Item Name
  ,                                       ! Object End Use Key
  ,                                       ! Quantity {dimensionless}
  58.897,                                 ! Material Cost {$}
  CostPerArea;                            ! Material Cost Units

OS:Material,
  {de82635e-235c-4103-a56c-491ad68b32e1}, ! Handle
  1IN Stucco,                             ! Name
  Smooth,                                 ! Roughness
  0.0253,                                 ! Thickness {m}
  0.6918,                                 ! Conductivity {W/m-K}
  1858,                                   ! Density {kg/m3}
  837,                                    ! Specific Heat {J/kg-K}
  0.9,                                    ! Thermal Absorptance
  0.92,                                   ! Solar Absorptance
  0.92;                                   ! Visible Absorptance

OS:Material,
  {a85c40c0-0292-4f56-9ac5-1d04e62b325e}, ! Handle
  Wall Insulation [4],                    ! Name
  MediumRough,                            ! Roughness
  0.0338606,                              ! Thickness {m}
  0.0432,                                 ! Conductivity {W/m-K}
  91,                                     ! Density {kg/m3}
  837,                                    ! Specific Heat {J/kg-K}
  0.9,                                    ! Thermal Absorptance
  0.5,                                    ! Solar Absorptance
  0.5;                                    ! Visible Absorptance

OS:Material,
  {42b64d5b-41c9-4f0e-85f2-7af964806469}, ! Handle
  1/2IN Gypsum,                           ! Name
  Smooth,                                 ! Roughness
  0.01271,                                ! Thickness {m}
  0.16,                                   ! Conductivity {W/m-K}
  784.9,                                  ! Density {kg/m3}
  830,                                    ! Specific Heat {J/kg-K}
  0.9,                                    ! Thermal Absorptance
  0.92,                                   ! Solar Absorptance
  0.92;                                   ! Visible Absorptance

OS:Construction,
  {7344113d-92c9-48ae-9bcc-6682e523fa2e}, ! Handle
  90.1-2001 Nonres B12 Ext Wall Mass,     ! Name
  ,                                       ! Surface Rendering Name
  {de82635e-235c-4103-a56c-491ad68b32e1}, ! Layer 1
  {4922d447-3c7b-4803-8b47-4fa143c0b294}, ! Layer 2
  {a85c40c0-0292-4f56-9ac5-1d04e62b325e}, ! Layer 3
  {42b64d5b-41c9-4f0e-85f2-7af964806469}; ! Layer 4

OS:Material,
  {4922d447-3c7b-4803-8b47-4fa143c0b294}, ! Handle
  8IN Concrete HW,                        ! Name
  MediumRough,                            ! Roughness
  0.2033,                                 ! Thickness {m}
  1.7296,                                 ! Conductivity {W/m-K}
  2243,                                   ! Density {kg/m3}
  837,                                    ! Specific Heat {J/kg-K}
  0.9,                                    ! Thermal Absorptance
  0.65,                                   ! Solar Absorptance
  0.65;                                   ! Visible Absorptance

