
OS:Version,
  {61ba34b5-e1cd-4a32-8970-eb6e82ef8bea}, !- Handle
  1.1.0;                                  !- Version Identifier

OS:Construction,
  {90696eb7-5184-4760-b20c-8a16c67ab261}, !- Handle
  Sgl Clr Low Iron 5mm,                   !- Name
  ,                                       !- Surface Rendering Name
  {77658016-bc8d-4c26-a067-0dcfd5b1eef4}; !- Layer 1

OS:WindowMaterial:Glazing,
  {77658016-bc8d-4c26-a067-0dcfd5b1eef4}, !- Handle
  LOW IRON 5MM,                           !- Name
  SpectralAverage,                        !- Optical Data Type
  ,                                       !- Window Glass Spectral Data Set Name
  0.005,                                  !- Thickness {m}
  0.889,                                  !- Solar Transmittance at Normal Incidence
  0.079,                                  !- Front Side Solar Reflectance at Normal Incidence
  0.079,                                  !- Back Side Solar Reflectance at Normal Incidence
  0.91,                                   !- Visible Transmittance at Normal Incidence
  0.082,                                  !- Front Side Visible Reflectance at Normal Incidence
  0.082,                                  !- Back Side Visible Reflectance at Normal Incidence
  0,                                      !- Infrared Transmittance at Normal Incidence
  0.84,                                   !- Front Side Infrared Hemispherical Emissivity
  0.84,                                   !- Back Side Infrared Hemispherical Emissivity
  0.9;                                    !- Conductivity {W/m-K}

