
OS:Version,
  {1a6a3dc1-03f4-4753-a652-275a9dce5216}, ! Handle
  0.9.3;                                  ! Version Identifier

OS:Material,
  {453e0ff1-f017-4483-a58c-ecb834fd1c33}, ! Handle
  Roof Insulation,                        ! Name
  MediumRough,                            ! Roughness
  0.124958,                               ! Thickness {m}
  0.049,                                  ! Conductivity {W/m-K}
  265,                                    ! Density {kg/m3}
  836.8,                                  ! Specific Heat {J/kg-K}
  0.9,                                    ! Thermal Absorptance
  0.7,                                    ! Solar Absorptance
  0.7;                                    ! Visible Absorptance

OS:Material,
  {7f2f20af-262f-43c2-bde8-876670470d24}, ! Handle
  Metal Decking,                          ! Name
  MediumSmooth,                           ! Roughness
  0.001524,                               ! Thickness {m}
  45.006,                                 ! Conductivity {W/m-K}
  7680,                                   ! Density {kg/m3}
  418.4,                                  ! Specific Heat {J/kg-K}
  0.9,                                    ! Thermal Absorptance
  0.7,                                    ! Solar Absorptance
  0.3;                                    ! Visible Absorptance

OS:ComponentCost:LineItem,
  {3a18581e-003f-4252-8b38-bc647bb410d9}, ! Handle
  90.1-1999 Res B3 Roof IEAD,             ! Name
  ,                                       ! Type
  Construction,                           ! Line Item Type
  90.1-1999 Res B3 Roof IEAD,             ! Item Name
  ,                                       ! Object End Use Key
  ,                                       ! Quantity {dimensionless}
  49.208,                                 ! Material Cost {$}
  CostPerArea;                            ! Material Cost Units

OS:Construction,
  {b9db6a88-dedd-4e49-a606-6fb900668349}, ! Handle
  90.1-1999 Res B3 Roof IEAD,             ! Name
  ,                                       ! Surface Rendering Name
  {09bb134f-8cf1-4e7f-a601-0a14b2303a32}, ! Layer 1
  {453e0ff1-f017-4483-a58c-ecb834fd1c33}, ! Layer 2
  {7f2f20af-262f-43c2-bde8-876670470d24}; ! Layer 3

OS:Material,
  {09bb134f-8cf1-4e7f-a601-0a14b2303a32}, ! Handle
  Roof Membrane,                          ! Name
  VeryRough,                              ! Roughness
  0.0095,                                 ! Thickness {m}
  0.16,                                   ! Conductivity {W/m-K}
  1121.29,                                ! Density {kg/m3}
  1460,                                   ! Specific Heat {J/kg-K}
  0.9,                                    ! Thermal Absorptance
  0.7,                                    ! Solar Absorptance
  0.7;                                    ! Visible Absorptance

