
OS:Version,
  {898664b4-8246-45f9-890e-7aa47132c941}, ! Handle
  0.9.3;                                  ! Version Identifier

OS:Construction,
  {a2dc2f2d-14f2-443e-8e0d-3379f8d6b90f}, ! Handle
  Title 24-2008 Nonres 15 Ext Slab Unheated - 8in Slab with Carpet, ! Name
  ,                                       ! Surface Rendering Name
  {854c2e71-401e-419f-bfab-2a5384d1cf9d}, ! Layer 1
  {a60dd191-aac0-4f6e-8f8b-8930020b2372}; ! Layer 2

OS:Material,
  {854c2e71-401e-419f-bfab-2a5384d1cf9d}, ! Handle
  MAT-CC05 8 HW CONCRETE,                 ! Name
  Rough,                                  ! Roughness
  0.20321,                                ! Thickness {m}
  1.311,                                  ! Conductivity {W/m-K}
  2240,                                   ! Density {kg/m3}
  836.8,                                  ! Specific Heat {J/kg-K}
  0.9,                                    ! Thermal Absorptance
  0.7,                                    ! Solar Absorptance
  0.7;                                    ! Visible Absorptance

OS:Material:NoMass,
  {a60dd191-aac0-4f6e-8f8b-8930020b2372}, ! Handle
  CP02 CARPET PAD,                        ! Name
  VeryRough,                              ! Roughness
  0.21648,                                ! Thermal Resistance {m2-K/W}
  0.9,                                    ! Thermal Absorptance
  0.7,                                    ! Solar Absorptance
  0.8;                                    ! Visible Absorptance

OS:ComponentCost:LineItem,
  {a2928e95-09e7-4abb-9840-0ff34a5a265e}, ! Handle
  Title 24-2008 Nonres 15 Ext Slab Unheated - 8in Slab with Carpet, ! Name
  ,                                       ! Type
  Construction,                           ! Line Item Type
  Title 24-2008 Nonres 15 Ext Slab Unheated - 8in Slab with Carpet, ! Item Name
  ,                                       ! Object End Use Key
  ,                                       ! Quantity {dimensionless}
  45.52,                                  ! Material Cost {$}
  CostPerArea;                            ! Material Cost Units

