
OS:Version,
  {cd200e28-1ccd-4617-acd4-35b8969b8dbc}, ! Handle
  0.9.3;                                  ! Version Identifier

OS:Material,
  {b97bdf00-9be4-4c80-a5ef-da8b01d6e742}, ! Handle
  GP01 1/2 GYPSUM,                        ! Name
  Smooth,                                 ! Roughness
  0.01271,                                ! Thickness {m}
  0.16,                                   ! Conductivity {W/m-K}
  800,                                    ! Density {kg/m3}
  1090,                                   ! Specific Heat {J/kg-K}
  0.9,                                    ! Thermal Absorptance
  0.7,                                    ! Solar Absorptance
  0.5;                                    ! Visible Absorptance

OS:ComponentCost:LineItem,
  {66032ac6-8f20-414e-9565-4af8eb2e0457}, ! Handle
  90.1-2004 Nonres 7A Int Wall,           ! Name
  ,                                       ! Type
  Construction,                           ! Line Item Type
  90.1-2004 Nonres 7A Int Wall,           ! Item Name
  ,                                       ! Object End Use Key
  ,                                       ! Quantity {dimensionless}
  0,                                      ! Material Cost {$}
  CostPerArea;                            ! Material Cost Units

OS:Construction,
  {54029a31-70ae-4f63-b6f1-537858ef9ff0}, ! Handle
  90.1-2004 Nonres 7A Int Wall,           ! Name
  ,                                       ! Surface Rendering Name
  {b97bdf00-9be4-4c80-a5ef-da8b01d6e742}, ! Layer 1
  {b97bdf00-9be4-4c80-a5ef-da8b01d6e742}; ! Layer 2

OS:Material,
  {096e1c94-53fe-462e-b44c-bd8934998e4f}, ! Handle
  GP01 1/2 GYPSUM 1,                      ! Name
  Smooth,                                 ! Roughness
  0.01271,                                ! Thickness {m}
  0.16,                                   ! Conductivity {W/m-K}
  800,                                    ! Density {kg/m3}
  1090,                                   ! Specific Heat {J/kg-K}
  0.9,                                    ! Thermal Absorptance
  0.7,                                    ! Solar Absorptance
  0.5;                                    ! Visible Absorptance

