
OS:Version,
  {cb28ff12-bc6e-40f0-937e-19d861a20e20}, ! Handle
  0.9.3;                                  ! Version Identifier

OS:Construction,
  {f41228f6-a9ec-49ec-8e2a-ea88010e8558}, ! Handle
  AEDG-SmOffice 8A Ext Wall Mass,         ! Name
  ,                                       ! Surface Rendering Name
  {24bed768-256d-4466-9af7-3964cdd79879}, ! Layer 1
  {20e6a7cb-9e97-4d45-9a2b-d9f8ffdc0e05}, ! Layer 2
  {4529e654-21ea-4a8d-ae19-79e6fd02d7d4}, ! Layer 3
  {3f010493-6e8b-4fee-a9fc-9df37bd365c4}; ! Layer 4

OS:Material,
  {24bed768-256d-4466-9af7-3964cdd79879}, ! Handle
  1IN Stucco,                             ! Name
  Smooth,                                 ! Roughness
  0.0253,                                 ! Thickness {m}
  0.6918,                                 ! Conductivity {W/m-K}
  1858,                                   ! Density {kg/m3}
  837,                                    ! Specific Heat {J/kg-K}
  0.9,                                    ! Thermal Absorptance
  0.92,                                   ! Solar Absorptance
  0.92;                                   ! Visible Absorptance

OS:Material,
  {20e6a7cb-9e97-4d45-9a2b-d9f8ffdc0e05}, ! Handle
  8IN Concrete HW,                        ! Name
  MediumRough,                            ! Roughness
  0.2033,                                 ! Thickness {m}
  1.7296,                                 ! Conductivity {W/m-K}
  2243,                                   ! Density {kg/m3}
  837,                                    ! Specific Heat {J/kg-K}
  0.9,                                    ! Thermal Absorptance
  0.65,                                   ! Solar Absorptance
  0.65;                                   ! Visible Absorptance

OS:Material,
  {4529e654-21ea-4a8d-ae19-79e6fd02d7d4}, ! Handle
  Wall Insulation [14],                   ! Name
  MediumRough,                            ! Roughness
  0.0905233,                              ! Thickness {m}
  0.0432,                                 ! Conductivity {W/m-K}
  91,                                     ! Density {kg/m3}
  837,                                    ! Specific Heat {J/kg-K}
  0.9,                                    ! Thermal Absorptance
  0.5,                                    ! Solar Absorptance
  0.5;                                    ! Visible Absorptance

OS:Material,
  {3f010493-6e8b-4fee-a9fc-9df37bd365c4}, ! Handle
  1/2IN Gypsum,                           ! Name
  Smooth,                                 ! Roughness
  0.01271,                                ! Thickness {m}
  0.16,                                   ! Conductivity {W/m-K}
  784.9,                                  ! Density {kg/m3}
  830,                                    ! Specific Heat {J/kg-K}
  0.9,                                    ! Thermal Absorptance
  0.92,                                   ! Solar Absorptance
  0.92;                                   ! Visible Absorptance

OS:ComponentCost:LineItem,
  {85ec956c-fcf8-4e69-8103-a20cd2715219}, ! Handle
  AEDG-SmOffice 8A Ext Wall Mass,         ! Name
  ,                                       ! Type
  Construction,                           ! Line Item Type
  AEDG-SmOffice 8A Ext Wall Mass,         ! Item Name
  ,                                       ! Object End Use Key
  ,                                       ! Quantity {dimensionless}
  70.253,                                 ! Material Cost {$}
  CostPerArea;                            ! Material Cost Units

OS:ComponentData,
  {11e82ed0-1123-498e-816f-89493e7abc7f}, ! Handle
  Component Data 1,                       ! Name
  {70d151e8-9124-49bc-9f3e-746ae79fb414}, ! UUID
  {75a16148-f14c-4708-88f7-cf4e6c776381}, ! Version UUID
  1363981967,                             ! Creation Timestamp
  1363981967,                             ! Version Timestamp
  {f41228f6-a9ec-49ec-8e2a-ea88010e8558}, ! Name of Object 1
  {24bed768-256d-4466-9af7-3964cdd79879}, ! Name of Object 2
  {20e6a7cb-9e97-4d45-9a2b-d9f8ffdc0e05}, ! Name of Object 3
  {4529e654-21ea-4a8d-ae19-79e6fd02d7d4}, ! Name of Object 4
  {3f010493-6e8b-4fee-a9fc-9df37bd365c4}, ! Name of Object 5
  {85ec956c-fcf8-4e69-8103-a20cd2715219}; ! Name of Object 6

