
OS:Version,
  {773da976-c82d-4f54-94e3-f2587f71dfd9}, ! Handle
  0.9.3;                                  ! Version Identifier

OS:Material:NoMass,
  {c4182008-4eed-4515-bf40-88e6f19e891d}, ! Handle
  CP02 CARPET PAD,                        ! Name
  VeryRough,                              ! Roughness
  0.21648,                                ! Thermal Resistance {m2-K/W}
  0.9,                                    ! Thermal Absorptance
  0.7,                                    ! Solar Absorptance
  0.8;                                    ! Visible Absorptance

OS:Construction,
  {d1b75a20-fcf5-40d4-9452-b80b7cf77a78}, ! Handle
  Title 24-2008 Nonres 1 Ext Slab Unheated - 8in Slab with Carpet, ! Name
  ,                                       ! Surface Rendering Name
  {e350ecd4-65f8-4b4d-9d97-7f76fcd074d6}, ! Layer 1
  {c4182008-4eed-4515-bf40-88e6f19e891d}; ! Layer 2

OS:Material,
  {e350ecd4-65f8-4b4d-9d97-7f76fcd074d6}, ! Handle
  MAT-CC05 8 HW CONCRETE,                 ! Name
  Rough,                                  ! Roughness
  0.20321,                                ! Thickness {m}
  1.311,                                  ! Conductivity {W/m-K}
  2240,                                   ! Density {kg/m3}
  836.8,                                  ! Specific Heat {J/kg-K}
  0.9,                                    ! Thermal Absorptance
  0.7,                                    ! Solar Absorptance
  0.7;                                    ! Visible Absorptance

OS:ComponentCost:LineItem,
  {3cace47d-0dd9-4557-ac70-e7b637101263}, ! Handle
  Title 24-2008 Nonres 1 Ext Slab Unheated - 8in Slab with Carpet, ! Name
  ,                                       ! Type
  Construction,                           ! Line Item Type
  Title 24-2008 Nonres 1 Ext Slab Unheated - 8in Slab with Carpet, ! Item Name
  ,                                       ! Object End Use Key
  ,                                       ! Quantity {dimensionless}
  45.52,                                  ! Material Cost {$}
  CostPerArea;                            ! Material Cost Units

