
OS:Version,
  {80505dab-4976-402a-8ee2-0fb356e0dee6}, ! Handle
  0.9.3;                                  ! Version Identifier

OS:Material,
  {780ccaec-2534-40e8-b0f6-f18e7d8ac3b2}, ! Handle
  MAT-CC05 4 HW CONCRETE,                 ! Name
  Rough,                                  ! Roughness
  0.1016,                                 ! Thickness {m}
  1.311,                                  ! Conductivity {W/m-K}
  2240,                                   ! Density {kg/m3}
  836.8,                                  ! Specific Heat {J/kg-K}
  0.9,                                    ! Thermal Absorptance
  0.7,                                    ! Solar Absorptance
  0.7;                                    ! Visible Absorptance

OS:Construction,
  {0a855214-13e5-40ab-bff3-0cc6781f36de}, ! Handle
  90.1-2004 Res 2A Ext Slab Unheated - 4in Slab with Carpet, ! Name
  ,                                       ! Surface Rendering Name
  {780ccaec-2534-40e8-b0f6-f18e7d8ac3b2}, ! Layer 1
  {b7412c74-80e4-4258-b433-4d76d867f0ab}; ! Layer 2

OS:Material:NoMass,
  {b7412c74-80e4-4258-b433-4d76d867f0ab}, ! Handle
  CP02 CARPET PAD,                        ! Name
  VeryRough,                              ! Roughness
  0.21648,                                ! Thermal Resistance {m2-K/W}
  0.9,                                    ! Thermal Absorptance
  0.7,                                    ! Solar Absorptance
  0.8;                                    ! Visible Absorptance

OS:ComponentCost:LineItem,
  {dd468044-f355-47d9-8a96-2459f3cd43fa}, ! Handle
  90.1-2004 Res 2A Ext Slab Unheated - 4in Slab with Carpet, ! Name
  ,                                       ! Type
  Construction,                           ! Line Item Type
  90.1-2004 Res 2A Ext Slab Unheated - 4in Slab with Carpet, ! Item Name
  ,                                       ! Object End Use Key
  ,                                       ! Quantity {dimensionless}
  45.52,                                  ! Material Cost {$}
  CostPerArea;                            ! Material Cost Units

