
OS:Version,
  {3b6e94a8-d3c0-4fda-9dc1-e5e9f2faf7f6}, ! Handle
  0.9.3;                                  ! Version Identifier

OS:ComponentCost:LineItem,
  {a0857820-80f8-460c-9cb4-c91ae2ff3567}, ! Handle
  90.1-1999 Res B13 Int Wall,             ! Name
  ,                                       ! Type
  Construction,                           ! Line Item Type
  90.1-1999 Res B13 Int Wall,             ! Item Name
  ,                                       ! Object End Use Key
  ,                                       ! Quantity {dimensionless}
  0,                                      ! Material Cost {$}
  CostPerArea;                            ! Material Cost Units

OS:Construction,
  {4a3bbda3-5fe3-4575-a6e3-45d3adfe6d3c}, ! Handle
  90.1-1999 Res B13 Int Wall,             ! Name
  ,                                       ! Surface Rendering Name
  {7ca46797-92a7-4609-8494-31e5e86ba54d}, ! Layer 1
  {7ca46797-92a7-4609-8494-31e5e86ba54d}; ! Layer 2

OS:Material,
  {7ca46797-92a7-4609-8494-31e5e86ba54d}, ! Handle
  GP01 1/2 GYPSUM,                        ! Name
  Smooth,                                 ! Roughness
  0.01271,                                ! Thickness {m}
  0.16,                                   ! Conductivity {W/m-K}
  800,                                    ! Density {kg/m3}
  1090,                                   ! Specific Heat {J/kg-K}
  0.9,                                    ! Thermal Absorptance
  0.7,                                    ! Solar Absorptance
  0.5;                                    ! Visible Absorptance

OS:Material,
  {0fa35c4b-db2b-49cd-9b48-2d76521fb75a}, ! Handle
  GP01 1/2 GYPSUM 1,                      ! Name
  Smooth,                                 ! Roughness
  0.01271,                                ! Thickness {m}
  0.16,                                   ! Conductivity {W/m-K}
  800,                                    ! Density {kg/m3}
  1090,                                   ! Specific Heat {J/kg-K}
  0.9,                                    ! Thermal Absorptance
  0.7,                                    ! Solar Absorptance
  0.5;                                    ! Visible Absorptance

