
OS:Version,
  {0ebf7cb8-2fb9-4206-afcc-eef248047252}, ! Handle
  0.9.3;                                  ! Version Identifier

OS:Construction,
  {d5af125f-3838-454e-a16b-e01421ed69b5}, ! Handle
  90.1-2007 Res 4B Ext Slab Unheated - 8in Slab without Carpet, ! Name
  ,                                       ! Surface Rendering Name
  {1e84b0fd-d1f2-4e66-8d47-f3cc91e582d3}; ! Layer 1

OS:Material,
  {1e84b0fd-d1f2-4e66-8d47-f3cc91e582d3}, ! Handle
  MAT-CC05 8 HW CONCRETE,                 ! Name
  Rough,                                  ! Roughness
  0.20321,                                ! Thickness {m}
  1.311,                                  ! Conductivity {W/m-K}
  2240,                                   ! Density {kg/m3}
  836.8,                                  ! Specific Heat {J/kg-K}
  0.9,                                    ! Thermal Absorptance
  0.7,                                    ! Solar Absorptance
  0.7;                                    ! Visible Absorptance

OS:ComponentCost:LineItem,
  {e593ac53-311d-4b73-b4f0-da3eb3f28400}, ! Handle
  90.1-2007 Res 4B Ext Slab Unheated - 8in Slab without Carpet, ! Name
  ,                                       ! Type
  Construction,                           ! Line Item Type
  90.1-2007 Res 4B Ext Slab Unheated - 8in Slab without Carpet, ! Item Name
  ,                                       ! Object End Use Key
  ,                                       ! Quantity {dimensionless}
  45.52,                                  ! Material Cost {$}
  CostPerArea;                            ! Material Cost Units

