
OS:Version,
  {d822888c-f597-4a78-bec4-fd87d26c8c63}, ! Handle
  0.9.3;                                  ! Version Identifier

OS:Material,
  {7fefd5fc-5755-4863-8bd3-824614109478}, ! Handle
  GP01 1/2 GYPSUM 1,                      ! Name
  Smooth,                                 ! Roughness
  0.01271,                                ! Thickness {m}
  0.16,                                   ! Conductivity {W/m-K}
  800,                                    ! Density {kg/m3}
  1090,                                   ! Specific Heat {J/kg-K}
  0.9,                                    ! Thermal Absorptance
  0.7,                                    ! Solar Absorptance
  0.5;                                    ! Visible Absorptance

OS:Material,
  {3380ca43-b586-4d95-9bcd-2c83d1692aa0}, ! Handle
  GP01 1/2 GYPSUM,                        ! Name
  Smooth,                                 ! Roughness
  0.01271,                                ! Thickness {m}
  0.16,                                   ! Conductivity {W/m-K}
  800,                                    ! Density {kg/m3}
  1090,                                   ! Specific Heat {J/kg-K}
  0.9,                                    ! Thermal Absorptance
  0.7,                                    ! Solar Absorptance
  0.5;                                    ! Visible Absorptance

OS:Construction,
  {bec31eb4-dee9-4990-a154-613f77046d36}, ! Handle
  90.1-2001 Res B24 Int Wall,             ! Name
  ,                                       ! Surface Rendering Name
  {3380ca43-b586-4d95-9bcd-2c83d1692aa0}, ! Layer 1
  {3380ca43-b586-4d95-9bcd-2c83d1692aa0}; ! Layer 2

OS:ComponentCost:LineItem,
  {f4c2e32c-1c9d-4236-a6ff-0d63895e1ecb}, ! Handle
  90.1-2001 Res B24 Int Wall,             ! Name
  ,                                       ! Type
  Construction,                           ! Line Item Type
  90.1-2001 Res B24 Int Wall,             ! Item Name
  ,                                       ! Object End Use Key
  ,                                       ! Quantity {dimensionless}
  0,                                      ! Material Cost {$}
  CostPerArea;                            ! Material Cost Units

