
OS:Version,
  {cc7f66bc-4877-4d05-95df-976e4a3e725f}, ! Handle
  0.9.3;                                  ! Version Identifier

OS:Material,
  {d2db8f6a-12ab-4fbe-976c-517e7dcd25cc}, ! Handle
  Roof Insulation [69],                   ! Name
  MediumRough,                            ! Roughness
  0.123529,                               ! Thickness {m}
  0.049,                                  ! Conductivity {W/m-K}
  265,                                    ! Density {kg/m3}
  836.8,                                  ! Specific Heat {J/kg-K}
  0.9,                                    ! Thermal Absorptance
  0.7,                                    ! Solar Absorptance
  0.7;                                    ! Visible Absorptance

OS:Construction,
  {9c6652b9-776c-49ce-a4f0-cc2fa313e5d4}, ! Handle
  90.1 Constructions Roof Metal Building R-19.0, ! Name
  ,                                       ! Surface Rendering Name
  {7dcfdb26-f2f9-48d1-bb05-ead4d2b643aa}, ! Layer 1
  {d2db8f6a-12ab-4fbe-976c-517e7dcd25cc}; ! Layer 2

OS:Material,
  {7dcfdb26-f2f9-48d1-bb05-ead4d2b643aa}, ! Handle
  Metal Roofing,                          ! Name
  MediumSmooth,                           ! Roughness
  0.001524,                               ! Thickness {m}
  45.006,                                 ! Conductivity {W/m-K}
  7680,                                   ! Density {kg/m3}
  418.4,                                  ! Specific Heat {J/kg-K}
  0.9,                                    ! Thermal Absorptance
  0.7,                                    ! Solar Absorptance
  0.3;                                    ! Visible Absorptance

OS:ComponentCost:LineItem,
  {6497e8a8-4dbf-43fe-ab09-cf5892592630}, ! Handle
  90.1 Constructions Roof Metal Building R-19.0, ! Name
  ,                                       ! Type
  Construction,                           ! Line Item Type
  90.1 Constructions Roof Metal Building R-19.0, ! Item Name
  ,                                       ! Object End Use Key
  ,                                       ! Quantity {dimensionless}
  38.203,                                 ! Material Cost {$}
  CostPerArea;                            ! Material Cost Units

