
OS:Version,
  {4f942ffb-f201-4b3c-ac70-bb79644622e0}, ! Handle
  0.9.3;                                  ! Version Identifier

OS:Construction,
  {880e9193-2a22-40f9-9a12-9d63f0d6f87d}, ! Handle
  AEDG SHC Nonres 8A Skylight Plastic Skylight with Curb, ! Name
  ,                                       ! Surface Rendering Name
  {c6e5b21b-8bc9-43cf-b49e-bac9c6725adc}; ! Layer 1

OS:WindowMaterial:Glazing,
  {c6e5b21b-8bc9-43cf-b49e-bac9c6725adc}, ! Handle
  Theoretical Glass [242],                ! Name
  SpectralAverage,                        ! Optical Data Type
  ,                                       ! Window Glass Spectral Data Set Name
  0.003,                                  ! Thickness {m}
  0.381632,                               ! Solar Transmittance at Normal Incidence
  0.568368,                               ! Front Side Solar Reflectance at Normal Incidence
  0.568368,                               ! Back Side Solar Reflectance at Normal Incidence
  0.549983,                               ! Visible Transmittance at Normal Incidence
  0.400017,                               ! Front Side Visible Reflectance at Normal Incidence
  0.400017,                               ! Back Side Visible Reflectance at Normal Incidence
  0,                                      ! Infrared Transmittance at Normal Incidence
  0.9,                                    ! Front Side Infrared Hemispherical Emissivity
  0.9,                                    ! Back Side Infrared Hemispherical Emissivity
  0.0230964;                              ! Conductivity {W/m-K}

