
OS:Version,
  {c4fe5738-308b-4854-9696-d66b0810bafc}, ! Handle
  0.9.3;                                  ! Version Identifier

OS:Construction,
  {6276619b-8f92-4852-ad6d-12a3ed0c5f42}, ! Handle
  AEDG SHC Nonres 8A Skylight Plastic Skylight with Curb, ! Name
  ,                                       ! Surface Rendering Name
  {fd485960-4535-42d6-abea-798e639262e4}; ! Layer 1

OS:WindowMaterial:Glazing,
  {fd485960-4535-42d6-abea-798e639262e4}, ! Handle
  Theoretical Glass [242],                ! Name
  SpectralAverage,                        ! Optical Data Type
  ,                                       ! Window Glass Spectral Data Set Name
  0.003,                                  ! Thickness {m}
  0.381632,                               ! Solar Transmittance at Normal Incidence
  0.568368,                               ! Front Side Solar Reflectance at Normal Incidence
  0.568368,                               ! Back Side Solar Reflectance at Normal Incidence
  0.549983,                               ! Visible Transmittance at Normal Incidence
  0.400017,                               ! Front Side Visible Reflectance at Normal Incidence
  0.400017,                               ! Back Side Visible Reflectance at Normal Incidence
  0,                                      ! Infrared Transmittance at Normal Incidence
  0.9,                                    ! Front Side Infrared Hemispherical Emissivity
  0.9,                                    ! Back Side Infrared Hemispherical Emissivity
  0.0230964;                              ! Conductivity {W/m-K}

OS:ComponentData,
  {89e3e363-eda8-41e1-9de9-e6be332f7ed9}, ! Handle
  Component Data 1,                       ! Name
  {d116aa86-a9c5-4e5b-ad26-e89ee00d3c0f}, ! UUID
  {21ddf6cc-7a04-41b2-920d-15a824b693fe}, ! Version UUID
  1363981935,                             ! Creation Timestamp
  1363981935,                             ! Version Timestamp
  {6276619b-8f92-4852-ad6d-12a3ed0c5f42}, ! Name of Object 1
  {fd485960-4535-42d6-abea-798e639262e4}; ! Name of Object 2

