
OS:Version,
  {b568d04e-8e33-40b2-9f73-34eeea477b83}, ! Handle
  0.9.3;                                  ! Version Identifier

OS:Material,
  {88d55559-6f3c-439b-a7b0-f13f403477f9}, ! Handle
  GP01 1/2 GYPSUM,                        ! Name
  Smooth,                                 ! Roughness
  0.01271,                                ! Thickness {m}
  0.16,                                   ! Conductivity {W/m-K}
  800,                                    ! Density {kg/m3}
  1090,                                   ! Specific Heat {J/kg-K}
  0.9,                                    ! Thermal Absorptance
  0.7,                                    ! Solar Absorptance
  0.5;                                    ! Visible Absorptance

OS:Construction,
  {2ad39e3d-9410-4a61-b3b4-4965c9b26420}, ! Handle
  90.1-2007 Nonres 3A Int Wall,           ! Name
  ,                                       ! Surface Rendering Name
  {88d55559-6f3c-439b-a7b0-f13f403477f9}, ! Layer 1
  {88d55559-6f3c-439b-a7b0-f13f403477f9}; ! Layer 2

OS:ComponentCost:LineItem,
  {369648f7-87c4-4690-9169-769d5a087c9a}, ! Handle
  90.1-2007 Nonres 3A Int Wall,           ! Name
  ,                                       ! Type
  Construction,                           ! Line Item Type
  90.1-2007 Nonres 3A Int Wall,           ! Item Name
  ,                                       ! Object End Use Key
  ,                                       ! Quantity {dimensionless}
  0,                                      ! Material Cost {$}
  CostPerArea;                            ! Material Cost Units

OS:Material,
  {157f4005-7d7a-41ee-a30e-540a5edb7e7f}, ! Handle
  GP01 1/2 GYPSUM 1,                      ! Name
  Smooth,                                 ! Roughness
  0.01271,                                ! Thickness {m}
  0.16,                                   ! Conductivity {W/m-K}
  800,                                    ! Density {kg/m3}
  1090,                                   ! Specific Heat {J/kg-K}
  0.9,                                    ! Thermal Absorptance
  0.7,                                    ! Solar Absorptance
  0.5;                                    ! Visible Absorptance

