
OS:Version,
  {ba7aea5b-a014-411f-9ea1-d4a8b983f958}, ! Handle
  0.9.3;                                  ! Version Identifier

OS:Material,
  {e32d1aae-4ac8-44cd-a38a-7c48e102b04a}, ! Handle
  MAT-CC05 8 HW CONCRETE,                 ! Name
  Rough,                                  ! Roughness
  0.20321,                                ! Thickness {m}
  1.311,                                  ! Conductivity {W/m-K}
  2240,                                   ! Density {kg/m3}
  836.8,                                  ! Specific Heat {J/kg-K}
  0.9,                                    ! Thermal Absorptance
  0.7,                                    ! Solar Absorptance
  0.7;                                    ! Visible Absorptance

OS:Construction,
  {526d5b15-4ab8-4dcd-87f5-ee4170cad535}, ! Handle
  90.1-1999 Nonres B17 Ext Slab Unheated - 8in Slab with Carpet, ! Name
  ,                                       ! Surface Rendering Name
  {e32d1aae-4ac8-44cd-a38a-7c48e102b04a}, ! Layer 1
  {f4794298-9276-4fd5-b975-c2bee02e2d54}; ! Layer 2

OS:Material:NoMass,
  {f4794298-9276-4fd5-b975-c2bee02e2d54}, ! Handle
  CP02 CARPET PAD,                        ! Name
  VeryRough,                              ! Roughness
  0.21648,                                ! Thermal Resistance {m2-K/W}
  0.9,                                    ! Thermal Absorptance
  0.7,                                    ! Solar Absorptance
  0.8;                                    ! Visible Absorptance

OS:ComponentCost:LineItem,
  {bcd8b99f-3a17-46f3-8a4b-73addaf2b618}, ! Handle
  90.1-1999 Nonres B17 Ext Slab Unheated - 8in Slab with Carpet, ! Name
  ,                                       ! Type
  Construction,                           ! Line Item Type
  90.1-1999 Nonres B17 Ext Slab Unheated - 8in Slab with Carpet, ! Item Name
  ,                                       ! Object End Use Key
  ,                                       ! Quantity {dimensionless}
  45.52,                                  ! Material Cost {$}
  CostPerArea;                            ! Material Cost Units

