
OS:Version,
  {b4fb88b4-0b0f-4657-8a35-7caaadbe9d86}, !- Handle
  1.1.0;                                  !- Version Identifier

OS:Construction,
  {2cdb0867-2f5e-41d1-a7f6-9817ba21a2ce}, !- Handle
  Dbl Elec Abs Colored 6mm/6mm Air,       !- Name
  ,                                       !- Surface Rendering Name
  {9baeaa01-7073-47f1-a1a5-4cf8b657fc8c}, !- Layer 1
  {e3580582-6fb8-4f35-9970-4780d9345d4d}, !- Layer 2
  {d5212347-0b3f-4bb4-9846-124a1b50a2b8}; !- Layer 3

OS:WindowMaterial:Glazing,
  {9baeaa01-7073-47f1-a1a5-4cf8b657fc8c}, !- Handle
  ECABS-2 COLORED 6MM,                    !- Name
  SpectralAverage,                        !- Optical Data Type
  ,                                       !- Window Glass Spectral Data Set Name
  0.006,                                  !- Thickness {m}
  0.111,                                  !- Solar Transmittance at Normal Incidence
  0.179,                                  !- Front Side Solar Reflectance at Normal Incidence
  0.179,                                  !- Back Side Solar Reflectance at Normal Incidence
  0.128,                                  !- Visible Transmittance at Normal Incidence
  0.081,                                  !- Front Side Visible Reflectance at Normal Incidence
  0.081,                                  !- Back Side Visible Reflectance at Normal Incidence
  0,                                      !- Infrared Transmittance at Normal Incidence
  0.84,                                   !- Front Side Infrared Hemispherical Emissivity
  0.1,                                    !- Back Side Infrared Hemispherical Emissivity
  0.9;                                    !- Conductivity {W/m-K}

OS:WindowMaterial:Gas,
  {e3580582-6fb8-4f35-9970-4780d9345d4d}, !- Handle
  AIR 6MM,                                !- Name
  Air,                                    !- Gas Type
  0.0063;                                 !- Thickness {m}

OS:WindowMaterial:Glazing,
  {d5212347-0b3f-4bb4-9846-124a1b50a2b8}, !- Handle
  CLEAR 6MM,                              !- Name
  SpectralAverage,                        !- Optical Data Type
  ,                                       !- Window Glass Spectral Data Set Name
  0.006,                                  !- Thickness {m}
  0.775,                                  !- Solar Transmittance at Normal Incidence
  0.071,                                  !- Front Side Solar Reflectance at Normal Incidence
  0.071,                                  !- Back Side Solar Reflectance at Normal Incidence
  0.881,                                  !- Visible Transmittance at Normal Incidence
  0.08,                                   !- Front Side Visible Reflectance at Normal Incidence
  0.08,                                   !- Back Side Visible Reflectance at Normal Incidence
  0,                                      !- Infrared Transmittance at Normal Incidence
  0.84,                                   !- Front Side Infrared Hemispherical Emissivity
  0.84,                                   !- Back Side Infrared Hemispherical Emissivity
  0.9;                                    !- Conductivity {W/m-K}

