
OS:Version,
  {b630e662-805e-4958-8d77-048e00033cda}, ! Handle
  0.9.3;                                  ! Version Identifier

OS:Construction,
  {5cd22258-94eb-4fc5-8ff2-585eb44ac4f0}, ! Handle
  90.1-2001 Nonres B4 Ext Slab Unheated - 4in Slab with Carpet, ! Name
  ,                                       ! Surface Rendering Name
  {5de27b97-7391-4a2c-9e40-5c06df84663c}, ! Layer 1
  {b7e69d5e-cc7a-4fe3-96ce-c3f60acf7179}; ! Layer 2

OS:Material,
  {5de27b97-7391-4a2c-9e40-5c06df84663c}, ! Handle
  MAT-CC05 4 HW CONCRETE,                 ! Name
  Rough,                                  ! Roughness
  0.1016,                                 ! Thickness {m}
  1.311,                                  ! Conductivity {W/m-K}
  2240,                                   ! Density {kg/m3}
  836.8,                                  ! Specific Heat {J/kg-K}
  0.9,                                    ! Thermal Absorptance
  0.7,                                    ! Solar Absorptance
  0.7;                                    ! Visible Absorptance

OS:Material:NoMass,
  {b7e69d5e-cc7a-4fe3-96ce-c3f60acf7179}, ! Handle
  CP02 CARPET PAD,                        ! Name
  VeryRough,                              ! Roughness
  0.21648,                                ! Thermal Resistance {m2-K/W}
  0.9,                                    ! Thermal Absorptance
  0.7,                                    ! Solar Absorptance
  0.8;                                    ! Visible Absorptance

OS:ComponentCost:LineItem,
  {042a1e3d-ad92-4066-b95b-650253f4fdd2}, ! Handle
  90.1-2001 Nonres B4 Ext Slab Unheated - 4in Slab with Carpet, ! Name
  ,                                       ! Type
  Construction,                           ! Line Item Type
  90.1-2001 Nonres B4 Ext Slab Unheated - 4in Slab with Carpet, ! Item Name
  ,                                       ! Object End Use Key
  ,                                       ! Quantity {dimensionless}
  45.52,                                  ! Material Cost {$}
  CostPerArea;                            ! Material Cost Units

OS:ComponentData,
  {53b4f63b-d853-4da4-9e14-f00980c72a0b}, ! Handle
  Component Data 1,                       ! Name
  {d53af1b8-a8b5-468a-802e-025630970677}, ! UUID
  {050ad1f0-55b2-4acd-a5bd-d256af903f52}, ! Version UUID
  1363981307,                             ! Creation Timestamp
  1363981307,                             ! Version Timestamp
  {5cd22258-94eb-4fc5-8ff2-585eb44ac4f0}, ! Name of Object 1
  {5de27b97-7391-4a2c-9e40-5c06df84663c}, ! Name of Object 2
  {b7e69d5e-cc7a-4fe3-96ce-c3f60acf7179}, ! Name of Object 3
  {042a1e3d-ad92-4066-b95b-650253f4fdd2}; ! Name of Object 4

