
OS:Version,
  {c5d0f0be-d4bb-4231-b244-8e7bac760bc8}, ! Handle
  0.9.3;                                  ! Version Identifier

OS:Construction,
  {7eae1362-45c0-4d1d-a5e7-be601adc2d89}, ! Handle
  90.1-2004 Res 6B Window Fixed,          ! Name
  ,                                       ! Surface Rendering Name
  {16e649b2-e842-423f-88a1-03caa48559a7}; ! Layer 1

OS:WindowMaterial:Glazing,
  {16e649b2-e842-423f-88a1-03caa48559a7}, ! Handle
  Theoretical Glass [148],                ! Name
  SpectralAverage,                        ! Optical Data Type
  ,                                       ! Window Glass Spectral Data Set Name
  0.003,                                  ! Thickness {m}
  0.48413,                                ! Solar Transmittance at Normal Incidence
  0.46587,                                ! Front Side Solar Reflectance at Normal Incidence
  0.46587,                                ! Back Side Solar Reflectance at Normal Incidence
  0.621562,                               ! Visible Transmittance at Normal Incidence
  0.328438,                               ! Front Side Visible Reflectance at Normal Incidence
  0.328438,                               ! Back Side Visible Reflectance at Normal Incidence
  0,                                      ! Infrared Transmittance at Normal Incidence
  0.9,                                    ! Front Side Infrared Hemispherical Emissivity
  0.9,                                    ! Back Side Infrared Hemispherical Emissivity
  0.0134755;                              ! Conductivity {W/m-K}

OS:ComponentCost:LineItem,
  {11835173-7d14-4ece-9e95-3b718e40e8ad}, ! Handle
  90.1-2004 Res 6B Window Fixed,          ! Name
  ,                                       ! Type
  Construction,                           ! Line Item Type
  90.1-2004 Res 6B Window Fixed,          ! Item Name
  ,                                       ! Object End Use Key
  ,                                       ! Quantity {dimensionless}
  444.232,                                ! Material Cost {$}
  CostPerArea;                            ! Material Cost Units

OS:ComponentData,
  {9ef665d1-e1f3-41aa-b056-7baf7afb2275}, ! Handle
  Component Data 1,                       ! Name
  {a688f496-4026-43fc-a78a-14888f6cfe0a}, ! UUID
  {728110a7-278a-4b92-8bf3-f4d8013039df}, ! Version UUID
  1363981757,                             ! Creation Timestamp
  1363981757,                             ! Version Timestamp
  {7eae1362-45c0-4d1d-a5e7-be601adc2d89}, ! Name of Object 1
  {16e649b2-e842-423f-88a1-03caa48559a7}, ! Name of Object 2
  {11835173-7d14-4ece-9e95-3b718e40e8ad}; ! Name of Object 3

