
OS:Version,
  {945036e3-9b4e-45ce-b2bd-76e128cb6885}, ! Handle
  0.9.3;                                  ! Version Identifier

OS:Construction,
  {6e9c08b3-0edd-4d00-bcac-16008e5553bc}, ! Handle
  90.1-2004 Res 6B Window Fixed,          ! Name
  ,                                       ! Surface Rendering Name
  {6df39f2f-26a3-4c8e-8be4-09782a36162f}; ! Layer 1

OS:WindowMaterial:Glazing,
  {6df39f2f-26a3-4c8e-8be4-09782a36162f}, ! Handle
  Theoretical Glass [148],                ! Name
  SpectralAverage,                        ! Optical Data Type
  ,                                       ! Window Glass Spectral Data Set Name
  0.003,                                  ! Thickness {m}
  0.48413,                                ! Solar Transmittance at Normal Incidence
  0.46587,                                ! Front Side Solar Reflectance at Normal Incidence
  0.46587,                                ! Back Side Solar Reflectance at Normal Incidence
  0.621562,                               ! Visible Transmittance at Normal Incidence
  0.328438,                               ! Front Side Visible Reflectance at Normal Incidence
  0.328438,                               ! Back Side Visible Reflectance at Normal Incidence
  0,                                      ! Infrared Transmittance at Normal Incidence
  0.9,                                    ! Front Side Infrared Hemispherical Emissivity
  0.9,                                    ! Back Side Infrared Hemispherical Emissivity
  0.0134755;                              ! Conductivity {W/m-K}

OS:ComponentCost:LineItem,
  {99e07891-afa5-40dd-a438-6e96c6adbbb5}, ! Handle
  90.1-2004 Res 6B Window Fixed,          ! Name
  ,                                       ! Type
  Construction,                           ! Line Item Type
  90.1-2004 Res 6B Window Fixed,          ! Item Name
  ,                                       ! Object End Use Key
  ,                                       ! Quantity {dimensionless}
  444.232,                                ! Material Cost {$}
  CostPerArea;                            ! Material Cost Units

