
OS:Version,
  {d40b132a-09c3-44ab-8421-d5c971b21ea1}, ! Handle
  0.9.3;                                  ! Version Identifier

OS:Material,
  {95f70920-fceb-43e8-a719-1e3ed193349c}, ! Handle
  1IN Wood Decking,                       ! Name
  MediumSmooth,                           ! Roughness
  0.0254,                                 ! Thickness {m}
  0.1211,                                 ! Conductivity {W/m-K}
  593,                                    ! Density {kg/m3}
  2510,                                   ! Specific Heat {J/kg-K}
  0.9,                                    ! Thermal Absorptance
  0.78,                                   ! Solar Absorptance
  0.78;                                   ! Visible Absorptance

OS:ComponentCost:LineItem,
  {74b9c510-4cde-42ba-913c-81b6c8dba78e}, ! Handle
  Title 24-2008 Nonres 3 Roof Attic and Other, ! Name
  ,                                       ! Type
  Construction,                           ! Line Item Type
  Title 24-2008 Nonres 3 Roof Attic and Other, ! Item Name
  ,                                       ! Object End Use Key
  ,                                       ! Quantity {dimensionless}
  33.009,                                 ! Material Cost {$}
  CostPerArea;                            ! Material Cost Units

OS:Material,
  {93a75e2b-b4c5-4e53-ae4f-1179cb6d6237}, ! Handle
  Roof Insulation [106],                  ! Name
  MediumRough,                            ! Roughness
  0.190659,                               ! Thickness {m}
  0.049,                                  ! Conductivity {W/m-K}
  265,                                    ! Density {kg/m3}
  836.8,                                  ! Specific Heat {J/kg-K}
  0.9,                                    ! Thermal Absorptance
  0.7,                                    ! Solar Absorptance
  0.7;                                    ! Visible Absorptance

OS:Material,
  {69e5b7ad-f560-445b-b0d1-33f2f360aca2}, ! Handle
  Wood Shingles [1],                      ! Name
  VeryRough,                              ! Roughness
  0.0178,                                 ! Thickness {m}
  0.115,                                  ! Conductivity {W/m-K}
  513,                                    ! Density {kg/m3}
  1255,                                   ! Specific Heat {J/kg-K}
  0.9,                                    ! Thermal Absorptance
  0.78,                                   ! Solar Absorptance
  0.85;                                   ! Visible Absorptance

OS:Construction,
  {7a71dc88-12a2-46ae-ba19-d491403e5240}, ! Handle
  Title 24-2008 Nonres 3 Roof Attic and Other, ! Name
  ,                                       ! Surface Rendering Name
  {69e5b7ad-f560-445b-b0d1-33f2f360aca2}, ! Layer 1
  {95f70920-fceb-43e8-a719-1e3ed193349c}, ! Layer 2
  {93a75e2b-b4c5-4e53-ae4f-1179cb6d6237}, ! Layer 3
  {ff7fff0d-1806-4788-8a89-5a7dbd94adea}; ! Layer 4

OS:Material,
  {ff7fff0d-1806-4788-8a89-5a7dbd94adea}, ! Handle
  1/2IN Gypsum,                           ! Name
  Smooth,                                 ! Roughness
  0.01271,                                ! Thickness {m}
  0.16,                                   ! Conductivity {W/m-K}
  784.9,                                  ! Density {kg/m3}
  830,                                    ! Specific Heat {J/kg-K}
  0.9,                                    ! Thermal Absorptance
  0.92,                                   ! Solar Absorptance
  0.92;                                   ! Visible Absorptance

