
OS:Version,
  {05800827-a270-4987-91b7-078496d5415a}, ! Handle
  0.9.3;                                  ! Version Identifier

OS:Material,
  {3b09c5aa-4cf1-4b2c-a9a7-77794753cf60}, ! Handle
  Metal Decking,                          ! Name
  MediumSmooth,                           ! Roughness
  0.001524,                               ! Thickness {m}
  45.006,                                 ! Conductivity {W/m-K}
  7680,                                   ! Density {kg/m3}
  418.4,                                  ! Specific Heat {J/kg-K}
  0.9,                                    ! Thermal Absorptance
  0.7,                                    ! Solar Absorptance
  0.3;                                    ! Visible Absorptance

OS:Material,
  {c457d5d0-da74-4b20-9b00-5fb10f6af6db}, ! Handle
  Roof Membrane,                          ! Name
  VeryRough,                              ! Roughness
  0.0095,                                 ! Thickness {m}
  0.16,                                   ! Conductivity {W/m-K}
  1121.29,                                ! Density {kg/m3}
  1460,                                   ! Specific Heat {J/kg-K}
  0.9,                                    ! Thermal Absorptance
  0.7,                                    ! Solar Absorptance
  0.7;                                    ! Visible Absorptance

OS:Construction,
  {38f6f6d8-7a51-41d9-8730-d2ef2e0d78fe}, ! Handle
  90.1-2001 Nonres B1 Roof IEAD,          ! Name
  ,                                       ! Surface Rendering Name
  {c457d5d0-da74-4b20-9b00-5fb10f6af6db}, ! Layer 1
  {582d12b9-d33f-4efd-80f3-49bedd9ab5e6}, ! Layer 2
  {3b09c5aa-4cf1-4b2c-a9a7-77794753cf60}; ! Layer 3

OS:Material,
  {582d12b9-d33f-4efd-80f3-49bedd9ab5e6}, ! Handle
  Roof Insulation,                        ! Name
  MediumRough,                            ! Roughness
  0.124958,                               ! Thickness {m}
  0.049,                                  ! Conductivity {W/m-K}
  265,                                    ! Density {kg/m3}
  836.8,                                  ! Specific Heat {J/kg-K}
  0.9,                                    ! Thermal Absorptance
  0.7,                                    ! Solar Absorptance
  0.7;                                    ! Visible Absorptance

OS:ComponentCost:LineItem,
  {dfa79617-92c5-47e6-bf6b-96b580a00cf0}, ! Handle
  90.1-2001 Nonres B1 Roof IEAD,          ! Name
  ,                                       ! Type
  Construction,                           ! Line Item Type
  90.1-2001 Nonres B1 Roof IEAD,          ! Item Name
  ,                                       ! Object End Use Key
  ,                                       ! Quantity {dimensionless}
  49.208,                                 ! Material Cost {$}
  CostPerArea;                            ! Material Cost Units

