
OS:Version,
  {a1843c84-ee95-4d26-b899-ea0ed8cf266c}, ! Handle
  0.9.3;                                  ! Version Identifier

OS:Construction,
  {def4470a-e920-4deb-8359-9f089f36619b}, ! Handle
  90.1-2001 Res B20 Window Fixed,         ! Name
  ,                                       ! Surface Rendering Name
  {029c1631-a253-4749-9a6d-eb3c0aa4b352}; ! Layer 1

OS:WindowMaterial:Glazing,
  {029c1631-a253-4749-9a6d-eb3c0aa4b352}, ! Handle
  Theoretical Glass [102],                ! Name
  SpectralAverage,                        ! Optical Data Type
  ,                                       ! Window Glass Spectral Data Set Name
  0.003,                                  ! Thickness {m}
  0.620178,                               ! Solar Transmittance at Normal Incidence
  0.329822,                               ! Front Side Solar Reflectance at Normal Incidence
  0.329822,                               ! Back Side Solar Reflectance at Normal Incidence
  0.639644,                               ! Visible Transmittance at Normal Incidence
  0.310356,                               ! Front Side Visible Reflectance at Normal Incidence
  0.310356,                               ! Back Side Visible Reflectance at Normal Incidence
  0,                                      ! Infrared Transmittance at Normal Incidence
  0.9,                                    ! Front Side Infrared Hemispherical Emissivity
  0.9,                                    ! Back Side Infrared Hemispherical Emissivity
  0.0137862;                              ! Conductivity {W/m-K}

OS:ComponentCost:LineItem,
  {10f3814c-d1d8-4c6a-b271-c6402b56a13d}, ! Handle
  90.1-2001 Res B20 Window Fixed,         ! Name
  ,                                       ! Type
  Construction,                           ! Line Item Type
  90.1-2001 Res B20 Window Fixed,         ! Item Name
  ,                                       ! Object End Use Key
  ,                                       ! Quantity {dimensionless}
  531.711,                                ! Material Cost {$}
  CostPerArea;                            ! Material Cost Units

