
OS:Version,
  {7a778774-d2eb-418b-a11d-95a70766bae9}, ! Handle
  0.9.3;                                  ! Version Identifier

OS:ComponentCost:LineItem,
  {f66ce71f-4edf-4145-890a-9f96ad2d4bb1}, ! Handle
  90.1-1999 Nonres B9 Skylight without Curb, ! Name
  ,                                       ! Type
  Construction,                           ! Line Item Type
  90.1-1999 Nonres B9 Skylight without Curb, ! Item Name
  ,                                       ! Object End Use Key
  ,                                       ! Quantity {dimensionless}
  459.189,                                ! Material Cost {$}
  CostPerArea;                            ! Material Cost Units

OS:Construction,
  {42f1ef34-1840-4440-b827-3d662550f024}, ! Handle
  90.1-1999 Nonres B9 Skylight without Curb, ! Name
  ,                                       ! Surface Rendering Name
  {735ff103-258d-4c39-9452-ee996ba75ebb}; ! Layer 1

OS:WindowMaterial:Glazing,
  {735ff103-258d-4c39-9452-ee996ba75ebb}, ! Handle
  Theoretical Glass [12],                 ! Name
  SpectralAverage,                        ! Optical Data Type
  ,                                       ! Window Glass Spectral Data Set Name
  0.003,                                  ! Thickness {m}
  0.595954,                               ! Solar Transmittance at Normal Incidence
  0.354046,                               ! Front Side Solar Reflectance at Normal Incidence
  0.354046,                               ! Back Side Solar Reflectance at Normal Incidence
  0.671296,                               ! Visible Transmittance at Normal Incidence
  0.278704,                               ! Front Side Visible Reflectance at Normal Incidence
  0.278704,                               ! Back Side Visible Reflectance at Normal Incidence
  0,                                      ! Infrared Transmittance at Normal Incidence
  0.999,                                  ! Front Side Infrared Hemispherical Emissivity
  0.999,                                  ! Back Side Infrared Hemispherical Emissivity
  299.383;                                ! Conductivity {W/m-K}

