
OS:Version,
  {8bba0c37-aaeb-40f9-9e9c-3aebaad3a762}, ! Handle
  0.9.3;                                  ! Version Identifier

OS:ComponentCost:LineItem,
  {a931821d-4bf4-4015-85e5-dc53f1373932}, ! Handle
  90.1-1999 Res B20 Roof Metal Building,  ! Name
  ,                                       ! Type
  Construction,                           ! Line Item Type
  90.1-1999 Res B20 Roof Metal Building,  ! Item Name
  ,                                       ! Object End Use Key
  ,                                       ! Quantity {dimensionless}
  38.206,                                 ! Material Cost {$}
  CostPerArea;                            ! Material Cost Units

OS:Material,
  {a4775ade-8e49-4122-93ed-06ff155a2772}, ! Handle
  Metal Roofing,                          ! Name
  MediumSmooth,                           ! Roughness
  0.001524,                               ! Thickness {m}
  45.006,                                 ! Conductivity {W/m-K}
  7680,                                   ! Density {kg/m3}
  418.4,                                  ! Specific Heat {J/kg-K}
  0.9,                                    ! Thermal Absorptance
  0.7,                                    ! Solar Absorptance
  0.3;                                    ! Visible Absorptance

OS:Material,
  {3190fa61-1c85-4cc3-83b0-2a837999af37}, ! Handle
  Roof Insulation [1],                    ! Name
  MediumRough,                            ! Roughness
  0.123533,                               ! Thickness {m}
  0.049,                                  ! Conductivity {W/m-K}
  265,                                    ! Density {kg/m3}
  836.8,                                  ! Specific Heat {J/kg-K}
  0.9,                                    ! Thermal Absorptance
  0.7,                                    ! Solar Absorptance
  0.7;                                    ! Visible Absorptance

OS:Construction,
  {57b6c644-05c6-40ff-8ddf-a8eb1fc2f84f}, ! Handle
  90.1-1999 Res B20 Roof Metal Building,  ! Name
  ,                                       ! Surface Rendering Name
  {a4775ade-8e49-4122-93ed-06ff155a2772}, ! Layer 1
  {3190fa61-1c85-4cc3-83b0-2a837999af37}; ! Layer 2

