
OS:Version,
  {49a4af5b-010c-4cb1-9486-e739bf29cf5c}, ! Handle
  0.9.3;                                  ! Version Identifier

OS:Material:NoMass,
  {d9b01c08-1146-4580-b763-4f30e1b72881}, ! Handle
  MAT-SHEATH,                             ! Name
  Rough,                                  ! Roughness
  0.36256,                                ! Thermal Resistance {m2-K/W}
  0.9,                                    ! Thermal Absorptance
  0.7,                                    ! Solar Absorptance
  0.7;                                    ! Visible Absorptance

OS:Material,
  {5847070b-620b-4ec3-98b9-bac7e452a62b}, ! Handle
  1/2IN Gypsum,                           ! Name
  Smooth,                                 ! Roughness
  0.01271,                                ! Thickness {m}
  0.16,                                   ! Conductivity {W/m-K}
  784.9,                                  ! Density {kg/m3}
  830,                                    ! Specific Heat {J/kg-K}
  0.9,                                    ! Thermal Absorptance
  0.92,                                   ! Solar Absorptance
  0.92;                                   ! Visible Absorptance

OS:Construction,
  {1909f6d5-7018-46ad-8f53-60334f883b06}, ! Handle
  90.1 Constructions Ext Wall Steel-Framed NR, ! Name
  ,                                       ! Surface Rendering Name
  {d9b01c08-1146-4580-b763-4f30e1b72881}, ! Layer 1
  {5847070b-620b-4ec3-98b9-bac7e452a62b}; ! Layer 2

OS:ComponentCost:LineItem,
  {cca0891d-ce84-42c0-9ce8-f266c8c23e6d}, ! Handle
  90.1 Constructions Ext Wall Steel-Framed NR, ! Name
  ,                                       ! Type
  Construction,                           ! Line Item Type
  90.1 Constructions Ext Wall Steel-Framed NR, ! Item Name
  ,                                       ! Object End Use Key
  ,                                       ! Quantity {dimensionless}
  83.689,                                 ! Material Cost {$}
  CostPerArea;                            ! Material Cost Units

