
OS:Version,
  {afb10650-930c-41d3-bac9-d143056fd9c5}, ! Handle
  0.9.3;                                  ! Version Identifier

OS:Material:NoMass,
  {f0272cc0-ff18-4227-91c1-83e47411a695}, ! Handle
  CP02 CARPET PAD,                        ! Name
  VeryRough,                              ! Roughness
  0.21648,                                ! Thermal Resistance {m2-K/W}
  0.9,                                    ! Thermal Absorptance
  0.7,                                    ! Solar Absorptance
  0.8;                                    ! Visible Absorptance

OS:ComponentCost:LineItem,
  {c377560a-3d39-4ccf-979f-ddf92a05e417}, ! Handle
  90.1-2001 Res B16 Ext Slab Unheated - 4in Slab with Carpet, ! Name
  ,                                       ! Type
  Construction,                           ! Line Item Type
  90.1-2001 Res B16 Ext Slab Unheated - 4in Slab with Carpet, ! Item Name
  ,                                       ! Object End Use Key
  ,                                       ! Quantity {dimensionless}
  45.52,                                  ! Material Cost {$}
  CostPerArea;                            ! Material Cost Units

OS:Construction,
  {4c17c326-8ccf-4c80-af54-bf86b799931f}, ! Handle
  90.1-2001 Res B16 Ext Slab Unheated - 4in Slab with Carpet, ! Name
  ,                                       ! Surface Rendering Name
  {30891166-3e6f-4fca-b86b-d60ed4221b06}, ! Layer 1
  {f0272cc0-ff18-4227-91c1-83e47411a695}; ! Layer 2

OS:Material,
  {30891166-3e6f-4fca-b86b-d60ed4221b06}, ! Handle
  MAT-CC05 4 HW CONCRETE,                 ! Name
  Rough,                                  ! Roughness
  0.1016,                                 ! Thickness {m}
  1.311,                                  ! Conductivity {W/m-K}
  2240,                                   ! Density {kg/m3}
  836.8,                                  ! Specific Heat {J/kg-K}
  0.9,                                    ! Thermal Absorptance
  0.7,                                    ! Solar Absorptance
  0.7;                                    ! Visible Absorptance

