
OS:Version,
  {e51c9465-ab35-4cfd-896e-cfe210b3fd7c}, ! Handle
  0.9.3;                                  ! Version Identifier

OS:Material,
  {6b4ee6ef-e37c-4e5d-a8c8-44a52b501149}, ! Handle
  1/2IN Gypsum,                           ! Name
  Smooth,                                 ! Roughness
  0.01271,                                ! Thickness {m}
  0.16,                                   ! Conductivity {W/m-K}
  784.9,                                  ! Density {kg/m3}
  830,                                    ! Specific Heat {J/kg-K}
  0.9,                                    ! Thermal Absorptance
  0.92,                                   ! Solar Absorptance
  0.92;                                   ! Visible Absorptance

OS:ComponentCost:LineItem,
  {25a4cfde-6287-477c-b041-4d1a46ad1aac}, ! Handle
  90.1-1999 Nonres B26 Ext Wall Steel-Framed, ! Name
  ,                                       ! Type
  Construction,                           ! Line Item Type
  90.1-1999 Nonres B26 Ext Wall Steel-Framed, ! Item Name
  ,                                       ! Object End Use Key
  ,                                       ! Quantity {dimensionless}
  97.384,                                 ! Material Cost {$}
  CostPerArea;                            ! Material Cost Units

OS:Material,
  {fd065b3d-0ae7-41d2-a01d-2451105360c4}, ! Handle
  Wall Insulation [15],                   ! Name
  MediumRough,                            ! Roughness
  0.117292,                               ! Thickness {m}
  0.045,                                  ! Conductivity {W/m-K}
  265,                                    ! Density {kg/m3}
  836.8,                                  ! Specific Heat {J/kg-K}
  0.9,                                    ! Thermal Absorptance
  0.7,                                    ! Solar Absorptance
  0.7;                                    ! Visible Absorptance

OS:Construction,
  {c5fd92f0-2a0b-4f59-b2ff-34032ab6fdc8}, ! Handle
  90.1-1999 Nonres B26 Ext Wall Steel-Framed, ! Name
  ,                                       ! Surface Rendering Name
  {eddab3c2-2dcc-4090-8fa4-5307d69f48a6}, ! Layer 1
  {fd065b3d-0ae7-41d2-a01d-2451105360c4}, ! Layer 2
  {6b4ee6ef-e37c-4e5d-a8c8-44a52b501149}; ! Layer 3

OS:Material:NoMass,
  {eddab3c2-2dcc-4090-8fa4-5307d69f48a6}, ! Handle
  MAT-SHEATH,                             ! Name
  Rough,                                  ! Roughness
  0.36256,                                ! Thermal Resistance {m2-K/W}
  0.9,                                    ! Thermal Absorptance
  0.7,                                    ! Solar Absorptance
  0.7;                                    ! Visible Absorptance

