
! 
OS:Version,
  {8503bb35-3288-4176-9c41-752f3d976c4b}, !- Handle
  1.13.0;                                 !- Version Identifier


! 
OS:Material,
  {476b7962-e360-40e4-9ec9-5a6051c07ff4}, !- Handle
  Aislamiento: SATE
WEBER: weber.therm placa EPS 90 (0.090 m)
R: 2.4 m2K/W,                             !- Name
  MediumRough,                                 !- Roughness
  0.09,                                    !- Thickness {m}
  0.037,                                    !- Conductivity {W/m-K}
  15.0,                                    !- Density {kg/m3}
  800.0,                                    !- Specific Heat {J/kg-K}
  0.9,                                    !- Thermal Absorptance
  0.6,                                    !- Solar Absorptance
  0.6;                                    !- Visible Absorptance

