
OS:Version,
  {3082b190-21d7-4ee2-9c01-cfd72724158d}, ! Handle
  0.9.3;                                  ! Version Identifier

OS:ComponentCost:LineItem,
  {a1dd3557-1632-4d18-bfdb-d11cd54f812c}, ! Handle
  Title 24-2008 Nonres 9 Ext Wall Mass,   ! Name
  ,                                       ! Type
  Construction,                           ! Line Item Type
  Title 24-2008 Nonres 9 Ext Wall Mass,   ! Item Name
  ,                                       ! Object End Use Key
  ,                                       ! Quantity {dimensionless}
  211.895,                                ! Material Cost {$}
  CostPerArea;                            ! Material Cost Units

OS:Material,
  {4fadd345-dfc0-45d2-a181-18c434510ea3}, ! Handle
  Wall Insulation [158],                  ! Name
  MediumRough,                            ! Roughness
  0.0509,                                 ! Thickness {m}
  0.0432,                                 ! Conductivity {W/m-K}
  91,                                     ! Density {kg/m3}
  837,                                    ! Specific Heat {J/kg-K}
  0.9,                                    ! Thermal Absorptance
  0.5,                                    ! Solar Absorptance
  0.5;                                    ! Visible Absorptance

OS:Material,
  {101d8ca1-ab8a-48fb-90b9-abb41c9ed35d}, ! Handle
  1IN Stucco,                             ! Name
  Smooth,                                 ! Roughness
  0.0253,                                 ! Thickness {m}
  0.6918,                                 ! Conductivity {W/m-K}
  1858,                                   ! Density {kg/m3}
  837,                                    ! Specific Heat {J/kg-K}
  0.9,                                    ! Thermal Absorptance
  0.92,                                   ! Solar Absorptance
  0.92;                                   ! Visible Absorptance

OS:Material,
  {3b4b742c-d2a1-4f8d-8c18-8e525109a555}, ! Handle
  8IN Concrete HW,                        ! Name
  MediumRough,                            ! Roughness
  0.2033,                                 ! Thickness {m}
  1.7296,                                 ! Conductivity {W/m-K}
  2243,                                   ! Density {kg/m3}
  837,                                    ! Specific Heat {J/kg-K}
  0.9,                                    ! Thermal Absorptance
  0.65,                                   ! Solar Absorptance
  0.65;                                   ! Visible Absorptance

OS:Material,
  {405d932c-2cd4-41da-89ab-f00c4cd49114}, ! Handle
  1/2IN Gypsum,                           ! Name
  Smooth,                                 ! Roughness
  0.01271,                                ! Thickness {m}
  0.16,                                   ! Conductivity {W/m-K}
  784.9,                                  ! Density {kg/m3}
  830,                                    ! Specific Heat {J/kg-K}
  0.9,                                    ! Thermal Absorptance
  0.92,                                   ! Solar Absorptance
  0.92;                                   ! Visible Absorptance

OS:Construction,
  {ca6aa2fe-960b-402d-8dea-0b228a2bcfe0}, ! Handle
  Title 24-2008 Nonres 9 Ext Wall Mass,   ! Name
  ,                                       ! Surface Rendering Name
  {101d8ca1-ab8a-48fb-90b9-abb41c9ed35d}, ! Layer 1
  {3b4b742c-d2a1-4f8d-8c18-8e525109a555}, ! Layer 2
  {4fadd345-dfc0-45d2-a181-18c434510ea3}, ! Layer 3
  {405d932c-2cd4-41da-89ab-f00c4cd49114}; ! Layer 4

