
OS:Version,
  {09ba657e-93c9-416b-9128-1e0011fc0ede}, ! Handle
  0.9.3;                                  ! Version Identifier

OS:Material:NoMass,
  {abf8984d-521b-4ff8-aef1-842ed2934c0a}, ! Handle
  MAT-SHEATH,                             ! Name
  Rough,                                  ! Roughness
  0.36256,                                ! Thermal Resistance {m2-K/W}
  0.9,                                    ! Thermal Absorptance
  0.7,                                    ! Solar Absorptance
  0.7;                                    ! Visible Absorptance

OS:ComponentCost:LineItem,
  {d2dd4d77-be8d-4513-8ca5-07d68330418c}, ! Handle
  189.1-2009 Nonres 7A Ext Wall Steel-Framed, ! Name
  ,                                       ! Type
  Construction,                           ! Line Item Type
  189.1-2009 Nonres 7A Ext Wall Steel-Framed, ! Item Name
  ,                                       ! Object End Use Key
  ,                                       ! Quantity {dimensionless}
  97.51,                                  ! Material Cost {$}
  CostPerArea;                            ! Material Cost Units

OS:Material,
  {07560492-75ae-4fa1-b189-5338605d8451}, ! Handle
  1/2IN Gypsum,                           ! Name
  Smooth,                                 ! Roughness
  0.01271,                                ! Thickness {m}
  0.16,                                   ! Conductivity {W/m-K}
  784.9,                                  ! Density {kg/m3}
  830,                                    ! Specific Heat {J/kg-K}
  0.9,                                    ! Thermal Absorptance
  0.92,                                   ! Solar Absorptance
  0.92;                                   ! Visible Absorptance

OS:Construction,
  {0bd6cdb4-4324-418c-9868-da3414944146}, ! Handle
  189.1-2009 Nonres 7A Ext Wall Steel-Framed, ! Name
  ,                                       ! Surface Rendering Name
  {abf8984d-521b-4ff8-aef1-842ed2934c0a}, ! Layer 1
  {ba2da9f1-2d56-4d36-a2e2-3f139981250f}, ! Layer 2
  {07560492-75ae-4fa1-b189-5338605d8451}; ! Layer 3

OS:Material,
  {ba2da9f1-2d56-4d36-a2e2-3f139981250f}, ! Handle
  Wall Insulation [39],                   ! Name
  MediumRough,                            ! Roughness
  0.118387,                               ! Thickness {m}
  0.045,                                  ! Conductivity {W/m-K}
  265,                                    ! Density {kg/m3}
  836.8,                                  ! Specific Heat {J/kg-K}
  0.9,                                    ! Thermal Absorptance
  0.7,                                    ! Solar Absorptance
  0.7;                                    ! Visible Absorptance

