
OS:Version,
  {4db3a05f-e2c3-463c-8aa3-eb3ebbe14fc5}, ! Handle
  0.9.3;                                  ! Version Identifier

OS:Material,
  {cd5b107c-a46d-4fa7-8437-1125ee3367f2}, ! Handle
  Wood Siding,                            ! Name
  MediumSmooth,                           ! Roughness
  0.01,                                   ! Thickness {m}
  0.11,                                   ! Conductivity {W/m-K}
  544.62,                                 ! Density {kg/m3}
  1210,                                   ! Specific Heat {J/kg-K}
  0.9,                                    ! Thermal Absorptance
  0.78,                                   ! Solar Absorptance
  0.78;                                   ! Visible Absorptance

OS:Construction,
  {cc3655ad-fe23-4645-b552-b6ba6d979af4}, ! Handle
  90.1-2007 Nonres 3A Ext Wall Wood-Framed and Other, ! Name
  ,                                       ! Surface Rendering Name
  {cd5b107c-a46d-4fa7-8437-1125ee3367f2}, ! Layer 1
  {4b98d0a4-1409-44e4-8e68-01ba5f552250}, ! Layer 2
  {1819a54f-209b-4b31-a008-e582c9d5bff7}; ! Layer 3

OS:Material,
  {4b98d0a4-1409-44e4-8e68-01ba5f552250}, ! Handle
  Wall Insulation [2],                    ! Name
  MediumRough,                            ! Roughness
  0.0746874,                              ! Thickness {m}
  0.045,                                  ! Conductivity {W/m-K}
  265,                                    ! Density {kg/m3}
  836.8,                                  ! Specific Heat {J/kg-K}
  0.9,                                    ! Thermal Absorptance
  0.7,                                    ! Solar Absorptance
  0.7;                                    ! Visible Absorptance

OS:Material,
  {1819a54f-209b-4b31-a008-e582c9d5bff7}, ! Handle
  1/2IN Gypsum,                           ! Name
  Smooth,                                 ! Roughness
  0.01271,                                ! Thickness {m}
  0.16,                                   ! Conductivity {W/m-K}
  784.9,                                  ! Density {kg/m3}
  830,                                    ! Specific Heat {J/kg-K}
  0.9,                                    ! Thermal Absorptance
  0.92,                                   ! Solar Absorptance
  0.92;                                   ! Visible Absorptance

OS:ComponentCost:LineItem,
  {4be185a4-5213-44c0-93b8-baa02d5088ad}, ! Handle
  90.1-2007 Nonres 3A Ext Wall Wood-Framed and Other, ! Name
  ,                                       ! Type
  Construction,                           ! Line Item Type
  90.1-2007 Nonres 3A Ext Wall Wood-Framed and Other, ! Item Name
  ,                                       ! Object End Use Key
  ,                                       ! Quantity {dimensionless}
  73.056,                                 ! Material Cost {$}
  CostPerArea;                            ! Material Cost Units

