
OS:Version,
  {bd5bc745-81f9-40cc-9f03-fdf9b85515b5}, ! Handle
  0.9.3;                                  ! Version Identifier

OS:Material,
  {2017cabf-7830-45b6-9536-eb50820c32bb}, ! Handle
  Wall Insulation [1],                    ! Name
  MediumRough,                            ! Roughness
  0.0373223,                              ! Thickness {m}
  0.045,                                  ! Conductivity {W/m-K}
  265,                                    ! Density {kg/m3}
  836.8,                                  ! Specific Heat {J/kg-K}
  0.9,                                    ! Thermal Absorptance
  0.7,                                    ! Solar Absorptance
  0.7;                                    ! Visible Absorptance

OS:Construction,
  {48db898d-c701-44e0-89d5-4b74b5f10c26}, ! Handle
  90.1-1999 Nonres B7 Ext Wall Steel-Framed, ! Name
  ,                                       ! Surface Rendering Name
  {8957cb4a-b458-4f92-8fe5-fcc29e1fae35}, ! Layer 1
  {2017cabf-7830-45b6-9536-eb50820c32bb}, ! Layer 2
  {03d40c90-8b4b-4453-868b-6c40be5950c9}; ! Layer 3

OS:Material:NoMass,
  {8957cb4a-b458-4f92-8fe5-fcc29e1fae35}, ! Handle
  MAT-SHEATH,                             ! Name
  Rough,                                  ! Roughness
  0.36256,                                ! Thermal Resistance {m2-K/W}
  0.9,                                    ! Thermal Absorptance
  0.7,                                    ! Solar Absorptance
  0.7;                                    ! Visible Absorptance

OS:Material,
  {03d40c90-8b4b-4453-868b-6c40be5950c9}, ! Handle
  1/2IN Gypsum,                           ! Name
  Smooth,                                 ! Roughness
  0.01271,                                ! Thickness {m}
  0.16,                                   ! Conductivity {W/m-K}
  784.9,                                  ! Density {kg/m3}
  830,                                    ! Specific Heat {J/kg-K}
  0.9,                                    ! Thermal Absorptance
  0.92,                                   ! Solar Absorptance
  0.92;                                   ! Visible Absorptance

OS:ComponentCost:LineItem,
  {46562386-e5fb-4c42-8d59-e062ebc32e59}, ! Handle
  90.1-1999 Nonres B7 Ext Wall Steel-Framed, ! Name
  ,                                       ! Type
  Construction,                           ! Line Item Type
  90.1-1999 Nonres B7 Ext Wall Steel-Framed, ! Item Name
  ,                                       ! Object End Use Key
  ,                                       ! Quantity {dimensionless}
  87.08,                                  ! Material Cost {$}
  CostPerArea;                            ! Material Cost Units

