
OS:Version,
  {c62d6c79-c179-4a54-9e4e-9de8d417ff8b}, ! Handle
  0.9.3;                                  ! Version Identifier

OS:WindowMaterial:Glazing,
  {6817a075-c627-495f-badc-431f384149db}, ! Handle
  Theoretical Glass [167],                ! Name
  SpectralAverage,                        ! Optical Data Type
  ,                                       ! Window Glass Spectral Data Set Name
  0.003,                                  ! Thickness {m}
  0.237362,                               ! Solar Transmittance at Normal Incidence
  0.712638,                               ! Front Side Solar Reflectance at Normal Incidence
  0.712638,                               ! Back Side Solar Reflectance at Normal Incidence
  0.251212,                               ! Visible Transmittance at Normal Incidence
  0.698788,                               ! Front Side Visible Reflectance at Normal Incidence
  0.698788,                               ! Back Side Visible Reflectance at Normal Incidence
  0,                                      ! Infrared Transmittance at Normal Incidence
  0.985,                                  ! Front Side Infrared Hemispherical Emissivity
  0.985,                                  ! Back Side Infrared Hemispherical Emissivity
  2.10728;                                ! Conductivity {W/m-K}

OS:ComponentCost:LineItem,
  {928a8dc3-a1bd-459f-8710-045dc90fd66a}, ! Handle
  189.1-2009 Nonres 1A Window Metal framing curtainwall-storefront, ! Name
  ,                                       ! Type
  Construction,                           ! Line Item Type
  189.1-2009 Nonres 1A Window Metal framing curtainwall-storefront, ! Item Name
  ,                                       ! Object End Use Key
  ,                                       ! Quantity {dimensionless}
  534.616,                                ! Material Cost {$}
  CostPerArea;                            ! Material Cost Units

OS:Construction,
  {7b6a0e6a-2a78-4f59-843c-bdd57c11ed38}, ! Handle
  189.1-2009 Nonres 1A Window Metal framing curtainwall-storefront, ! Name
  ,                                       ! Surface Rendering Name
  {6817a075-c627-495f-badc-431f384149db}; ! Layer 1

