
OS:Version,
  {223a663d-59f8-49dc-a06e-81c9f099cc0a}, ! Handle
  0.9.3;                                  ! Version Identifier

OS:Material,
  {b40609f9-f4b3-41e1-9ae3-91d6d42e7b7b}, ! Handle
  Wall Insulation [25],                   ! Name
  MediumRough,                            ! Roughness
  0.128503,                               ! Thickness {m}
  0.045,                                  ! Conductivity {W/m-K}
  265,                                    ! Density {kg/m3}
  836.8,                                  ! Specific Heat {J/kg-K}
  0.9,                                    ! Thermal Absorptance
  0.7,                                    ! Solar Absorptance
  0.7;                                    ! Visible Absorptance

OS:Material,
  {bdd302fb-db4e-41c2-81ec-28c7a8979a8d}, ! Handle
  Metal Siding,                           ! Name
  Smooth,                                 ! Roughness
  0.0015,                                 ! Thickness {m}
  44.96,                                  ! Conductivity {W/m-K}
  7688.86,                                ! Density {kg/m3}
  410,                                    ! Specific Heat {J/kg-K}
  0.9,                                    ! Thermal Absorptance
  0.2,                                    ! Solar Absorptance
  0.2;                                    ! Visible Absorptance

OS:ComponentCost:LineItem,
  {54bfe3db-1dc9-4a14-bad9-7a99875aba9e}, ! Handle
  90.1-2007 Nonres 7A Ext Wall Metal Building, ! Name
  ,                                       ! Type
  Construction,                           ! Line Item Type
  90.1-2007 Nonres 7A Ext Wall Metal Building, ! Item Name
  ,                                       ! Object End Use Key
  ,                                       ! Quantity {dimensionless}
  107.681,                                ! Material Cost {$}
  CostPerArea;                            ! Material Cost Units

OS:Construction,
  {4a8cbc60-3f1d-418c-a600-3591229ffe8b}, ! Handle
  90.1-2007 Nonres 7A Ext Wall Metal Building, ! Name
  ,                                       ! Surface Rendering Name
  {bdd302fb-db4e-41c2-81ec-28c7a8979a8d}, ! Layer 1
  {b40609f9-f4b3-41e1-9ae3-91d6d42e7b7b}, ! Layer 2
  {097d8164-c941-4d16-91c3-d625c84a5824}; ! Layer 3

OS:Material,
  {097d8164-c941-4d16-91c3-d625c84a5824}, ! Handle
  1/2IN Gypsum,                           ! Name
  Smooth,                                 ! Roughness
  0.01271,                                ! Thickness {m}
  0.16,                                   ! Conductivity {W/m-K}
  784.9,                                  ! Density {kg/m3}
  830,                                    ! Specific Heat {J/kg-K}
  0.9,                                    ! Thermal Absorptance
  0.92,                                   ! Solar Absorptance
  0.92;                                   ! Visible Absorptance

