
OS:Version,
  {ceaeb671-0781-491a-bf81-c7e4bdad3d6c}, ! Handle
  0.9.3;                                  ! Version Identifier

OS:Construction,
  {cadee4d1-9a65-4517-bd56-8d5b4f41d294}, ! Handle
  Title 24-2008 Nonres 3 Skylight without Curb, ! Name
  ,                                       ! Surface Rendering Name
  {9c9c70aa-633a-4ca8-ba0f-8c6d069c5f47}; ! Layer 1

OS:WindowMaterial:Glazing,
  {9c9c70aa-633a-4ca8-ba0f-8c6d069c5f47}, ! Handle
  Theoretical Glass [681],                ! Name
  SpectralAverage,                        ! Optical Data Type
  ,                                       ! Window Glass Spectral Data Set Name
  0.003,                                  ! Thickness {m}
  0.390498,                               ! Solar Transmittance at Normal Incidence
  0.559502,                               ! Front Side Solar Reflectance at Normal Incidence
  0.559502,                               ! Back Side Solar Reflectance at Normal Incidence
  0.400004,                               ! Visible Transmittance at Normal Incidence
  0.549996,                               ! Front Side Visible Reflectance at Normal Incidence
  0.549996,                               ! Back Side Visible Reflectance at Normal Incidence
  0,                                      ! Infrared Transmittance at Normal Incidence
  0.9,                                    ! Front Side Infrared Hemispherical Emissivity
  0.9,                                    ! Back Side Infrared Hemispherical Emissivity
  0.0498596;                              ! Conductivity {W/m-K}

OS:ComponentCost:LineItem,
  {be779aba-2954-4df1-b9dc-bc458250b5d4}, ! Handle
  Title 24-2008 Nonres 3 Skylight without Curb, ! Name
  ,                                       ! Type
  Construction,                           ! Line Item Type
  Title 24-2008 Nonres 3 Skylight without Curb, ! Item Name
  ,                                       ! Object End Use Key
  ,                                       ! Quantity {dimensionless}
  511.59,                                 ! Material Cost {$}
  CostPerArea;                            ! Material Cost Units

OS:ComponentData,
  {c2cb0d96-8479-4235-9f80-91c85c6cd709}, ! Handle
  Component Data 1,                       ! Name
  {845d7c2c-d7c2-4bb3-82d8-992de741dee1}, ! UUID
  {fa029e39-fb63-4580-8199-63b09faa32d7}, ! Version UUID
  1363982008,                             ! Creation Timestamp
  1363982008,                             ! Version Timestamp
  {cadee4d1-9a65-4517-bd56-8d5b4f41d294}, ! Name of Object 1
  {9c9c70aa-633a-4ca8-ba0f-8c6d069c5f47}, ! Name of Object 2
  {be779aba-2954-4df1-b9dc-bc458250b5d4}; ! Name of Object 3

