
OS:Version,
  {751cf7af-68df-4ff6-9b3e-8537f21f0de9}, ! Handle
  0.9.3;                                  ! Version Identifier

OS:Material,
  {aa0202d6-65f9-4d51-adbd-eca9d6eb069e}, ! Handle
  Roof Insulation,                        ! Name
  MediumRough,                            ! Roughness
  0.124958,                               ! Thickness {m}
  0.049,                                  ! Conductivity {W/m-K}
  265,                                    ! Density {kg/m3}
  836.8,                                  ! Specific Heat {J/kg-K}
  0.9,                                    ! Thermal Absorptance
  0.7,                                    ! Solar Absorptance
  0.7;                                    ! Visible Absorptance

OS:Construction,
  {44145f1c-a3aa-436a-80f9-f8473e0df3ac}, ! Handle
  90.1-2001 Nonres B15 Roof IEAD,         ! Name
  ,                                       ! Surface Rendering Name
  {27581206-4282-4696-be2d-8080343b5a5a}, ! Layer 1
  {aa0202d6-65f9-4d51-adbd-eca9d6eb069e}, ! Layer 2
  {b1ac410b-c9f9-488a-884b-299f699e7003}; ! Layer 3

OS:Material,
  {27581206-4282-4696-be2d-8080343b5a5a}, ! Handle
  Roof Membrane,                          ! Name
  VeryRough,                              ! Roughness
  0.0095,                                 ! Thickness {m}
  0.16,                                   ! Conductivity {W/m-K}
  1121.29,                                ! Density {kg/m3}
  1460,                                   ! Specific Heat {J/kg-K}
  0.9,                                    ! Thermal Absorptance
  0.7,                                    ! Solar Absorptance
  0.7;                                    ! Visible Absorptance

OS:Material,
  {b1ac410b-c9f9-488a-884b-299f699e7003}, ! Handle
  Metal Decking,                          ! Name
  MediumSmooth,                           ! Roughness
  0.001524,                               ! Thickness {m}
  45.006,                                 ! Conductivity {W/m-K}
  7680,                                   ! Density {kg/m3}
  418.4,                                  ! Specific Heat {J/kg-K}
  0.9,                                    ! Thermal Absorptance
  0.7,                                    ! Solar Absorptance
  0.3;                                    ! Visible Absorptance

OS:ComponentCost:LineItem,
  {702d02e6-00cc-4902-99b8-c0863003ded2}, ! Handle
  90.1-2001 Nonres B15 Roof IEAD,         ! Name
  ,                                       ! Type
  Construction,                           ! Line Item Type
  90.1-2001 Nonres B15 Roof IEAD,         ! Item Name
  ,                                       ! Object End Use Key
  ,                                       ! Quantity {dimensionless}
  49.208,                                 ! Material Cost {$}
  CostPerArea;                            ! Material Cost Units

