
OS:Version,
  {998d2cd8-1883-44a5-8b59-46d141823650}, ! Handle
  0.9.3;                                  ! Version Identifier

OS:Material,
  {15693709-77fa-4104-8d76-7e300b80da7f}, ! Handle
  1/2IN Gypsum,                           ! Name
  Smooth,                                 ! Roughness
  0.01271,                                ! Thickness {m}
  0.16,                                   ! Conductivity {W/m-K}
  784.9,                                  ! Density {kg/m3}
  830,                                    ! Specific Heat {J/kg-K}
  0.9,                                    ! Thermal Absorptance
  0.92,                                   ! Solar Absorptance
  0.92;                                   ! Visible Absorptance

OS:ComponentCost:LineItem,
  {5e4f4c34-1749-402d-96ab-78429416e339}, ! Handle
  90.1-2001 Nonres B14 Ext Wall Metal Building, ! Name
  ,                                       ! Type
  Construction,                           ! Line Item Type
  90.1-2001 Nonres B14 Ext Wall Metal Building, ! Item Name
  ,                                       ! Object End Use Key
  ,                                       ! Quantity {dimensionless}
  98.78,                                  ! Material Cost {$}
  CostPerArea;                            ! Material Cost Units

OS:Material,
  {26b651e2-bb7d-4f90-aeeb-0a1c93d92708}, ! Handle
  Metal Siding,                           ! Name
  Smooth,                                 ! Roughness
  0.0015,                                 ! Thickness {m}
  44.96,                                  ! Conductivity {W/m-K}
  7688.86,                                ! Density {kg/m3}
  410,                                    ! Specific Heat {J/kg-K}
  0.9,                                    ! Thermal Absorptance
  0.2,                                    ! Solar Absorptance
  0.2;                                    ! Visible Absorptance

OS:Construction,
  {62138052-c7c1-433a-9909-074cd2df0712}, ! Handle
  90.1-2001 Nonres B14 Ext Wall Metal Building, ! Name
  ,                                       ! Surface Rendering Name
  {26b651e2-bb7d-4f90-aeeb-0a1c93d92708}, ! Layer 1
  {6522871b-ddb7-449a-97f0-8f5f94ca96bc}, ! Layer 2
  {15693709-77fa-4104-8d76-7e300b80da7f}; ! Layer 3

OS:Material,
  {6522871b-ddb7-449a-97f0-8f5f94ca96bc}, ! Handle
  Wall Insulation,                        ! Name
  MediumRough,                            ! Roughness
  0.0598725,                              ! Thickness {m}
  0.045,                                  ! Conductivity {W/m-K}
  265,                                    ! Density {kg/m3}
  836.8,                                  ! Specific Heat {J/kg-K}
  0.9,                                    ! Thermal Absorptance
  0.7,                                    ! Solar Absorptance
  0.7;                                    ! Visible Absorptance

