
OS:Version,
  {3cb72b4a-845d-4eee-9efd-030326d9c855}, ! Handle
  0.9.3;                                  ! Version Identifier

OS:WindowMaterial:Glazing,
  {33875a07-49e8-427c-bbd6-c3f493b8e603}, ! Handle
  Theoretical Glass [167],                ! Name
  SpectralAverage,                        ! Optical Data Type
  ,                                       ! Window Glass Spectral Data Set Name
  0.003,                                  ! Thickness {m}
  0.237362,                               ! Solar Transmittance at Normal Incidence
  0.712638,                               ! Front Side Solar Reflectance at Normal Incidence
  0.712638,                               ! Back Side Solar Reflectance at Normal Incidence
  0.251212,                               ! Visible Transmittance at Normal Incidence
  0.698788,                               ! Front Side Visible Reflectance at Normal Incidence
  0.698788,                               ! Back Side Visible Reflectance at Normal Incidence
  0,                                      ! Infrared Transmittance at Normal Incidence
  0.985,                                  ! Front Side Infrared Hemispherical Emissivity
  0.985,                                  ! Back Side Infrared Hemispherical Emissivity
  2.10728;                                ! Conductivity {W/m-K}

OS:ComponentCost:LineItem,
  {0d7fc44c-14f0-4047-be25-8d0e26c12fab}, ! Handle
  90.1-2007 Res 1A Window Metal framing entrance door, ! Name
  ,                                       ! Type
  Construction,                           ! Line Item Type
  90.1-2007 Res 1A Window Metal framing entrance door, ! Item Name
  ,                                       ! Object End Use Key
  ,                                       ! Quantity {dimensionless}
  534.616,                                ! Material Cost {$}
  CostPerArea;                            ! Material Cost Units

OS:Construction,
  {e0ba42c0-9286-47b6-8774-1c628b210d04}, ! Handle
  90.1-2007 Res 1A Window Metal framing entrance door, ! Name
  ,                                       ! Surface Rendering Name
  {33875a07-49e8-427c-bbd6-c3f493b8e603}; ! Layer 1

