
OS:Version,
  {79d6c000-e193-437b-84ed-f6afbebd6c5f}, ! Handle
  0.9.3;                                  ! Version Identifier

OS:Material,
  {fc42cc46-fc78-4305-8b60-d7b3e22f1c70}, ! Handle
  Roof Insulation [5],                    ! Name
  MediumRough,                            ! Roughness
  0.286906,                               ! Thickness {m}
  0.049,                                  ! Conductivity {W/m-K}
  265,                                    ! Density {kg/m3}
  836.8,                                  ! Specific Heat {J/kg-K}
  0.9,                                    ! Thermal Absorptance
  0.7,                                    ! Solar Absorptance
  0.7;                                    ! Visible Absorptance

OS:Material,
  {97646e45-5aa0-4fd5-a713-410be0e400f7}, ! Handle
  1IN Wood Decking,                       ! Name
  MediumSmooth,                           ! Roughness
  0.0254,                                 ! Thickness {m}
  0.1211,                                 ! Conductivity {W/m-K}
  593,                                    ! Density {kg/m3}
  2510,                                   ! Specific Heat {J/kg-K}
  0.9,                                    ! Thermal Absorptance
  0.78,                                   ! Solar Absorptance
  0.78;                                   ! Visible Absorptance

OS:Material,
  {26f59f09-ba4e-4471-a62c-dc262becc697}, ! Handle
  1/2IN Gypsum,                           ! Name
  Smooth,                                 ! Roughness
  0.01271,                                ! Thickness {m}
  0.16,                                   ! Conductivity {W/m-K}
  784.9,                                  ! Density {kg/m3}
  830,                                    ! Specific Heat {J/kg-K}
  0.9,                                    ! Thermal Absorptance
  0.92,                                   ! Solar Absorptance
  0.92;                                   ! Visible Absorptance

OS:Material,
  {d59fc923-2279-4b47-ae99-e052c385cbea}, ! Handle
  Wood Shingles,                          ! Name
  VeryRough,                              ! Roughness
  0.0178,                                 ! Thickness {m}
  0.115,                                  ! Conductivity {W/m-K}
  513,                                    ! Density {kg/m3}
  1255,                                   ! Specific Heat {J/kg-K}
  0.9,                                    ! Thermal Absorptance
  0.78,                                   ! Solar Absorptance
  0.78;                                   ! Visible Absorptance

OS:ComponentCost:LineItem,
  {56c7cb01-269a-4367-8c65-8b5c4caf4c6c}, ! Handle
  90.1-2007 Res 4B Roof Attic and Other,  ! Name
  ,                                       ! Type
  Construction,                           ! Line Item Type
  90.1-2007 Res 4B Roof Attic and Other,  ! Item Name
  ,                                       ! Object End Use Key
  ,                                       ! Quantity {dimensionless}
  34.757,                                 ! Material Cost {$}
  CostPerArea;                            ! Material Cost Units

OS:Construction,
  {6db58a9a-bbfc-4a38-864b-e289e2f19edc}, ! Handle
  90.1-2007 Res 4B Roof Attic and Other,  ! Name
  ,                                       ! Surface Rendering Name
  {d59fc923-2279-4b47-ae99-e052c385cbea}, ! Layer 1
  {97646e45-5aa0-4fd5-a713-410be0e400f7}, ! Layer 2
  {fc42cc46-fc78-4305-8b60-d7b3e22f1c70}, ! Layer 3
  {26f59f09-ba4e-4471-a62c-dc262becc697}; ! Layer 4

