
OS:Version,
  {bfaeb5f1-9fc1-4246-9b32-257f36dbab8f}, ! Handle
  0.9.3;                                  ! Version Identifier

OS:Material,
  {3f334ec0-c898-47ee-884c-b6a6b6cd3829}, ! Handle
  MAT-CC05 8 HW CONCRETE,                 ! Name
  Rough,                                  ! Roughness
  0.20321,                                ! Thickness {m}
  1.311,                                  ! Conductivity {W/m-K}
  2240,                                   ! Density {kg/m3}
  836.8,                                  ! Specific Heat {J/kg-K}
  0.9,                                    ! Thermal Absorptance
  0.7,                                    ! Solar Absorptance
  0.7;                                    ! Visible Absorptance

OS:Material:NoMass,
  {3f78ab0d-a4ae-4e50-9576-db43ca3bf3c0}, ! Handle
  CP02 CARPET PAD,                        ! Name
  VeryRough,                              ! Roughness
  0.21648,                                ! Thermal Resistance {m2-K/W}
  0.9,                                    ! Thermal Absorptance
  0.7,                                    ! Solar Absorptance
  0.8;                                    ! Visible Absorptance

OS:Construction,
  {06967502-82c4-4e00-a4d0-0abecfcc0136}, ! Handle
  189.1-2009 Res 8A Ext Slab Unheated - 8in Slab with Carpet, ! Name
  ,                                       ! Surface Rendering Name
  {3f334ec0-c898-47ee-884c-b6a6b6cd3829}, ! Layer 1
  {3f78ab0d-a4ae-4e50-9576-db43ca3bf3c0}; ! Layer 2

OS:ComponentCost:LineItem,
  {fc66b47d-65a7-40b2-8db5-ab5e89cf6d2d}, ! Handle
  189.1-2009 Res 8A Ext Slab Unheated - 8in Slab with Carpet, ! Name
  ,                                       ! Type
  Construction,                           ! Line Item Type
  189.1-2009 Res 8A Ext Slab Unheated - 8in Slab with Carpet, ! Item Name
  ,                                       ! Object End Use Key
  ,                                       ! Quantity {dimensionless}
  45.52,                                  ! Material Cost {$}
  CostPerArea;                            ! Material Cost Units

