
OS:Version,
  {34ed6f31-2464-4e6a-9769-19fdb6bcd60e}, ! Handle
  0.9.3;                                  ! Version Identifier

OS:Construction,
  {5ff7bc52-5d8d-4260-885b-9266565e3f51}, ! Handle
  90.1-2001 Res B3 Skylight without Curb, ! Name
  ,                                       ! Surface Rendering Name
  {aa4af079-b1b2-43e4-91f0-0f9df0ed7d95}; ! Layer 1

OS:WindowMaterial:Glazing,
  {aa4af079-b1b2-43e4-91f0-0f9df0ed7d95}, ! Handle
  Theoretical Glass [63],                 ! Name
  SpectralAverage,                        ! Optical Data Type
  ,                                       ! Window Glass Spectral Data Set Name
  0.003,                                  ! Thickness {m}
  0.177255,                               ! Solar Transmittance at Normal Incidence
  0.772745,                               ! Front Side Solar Reflectance at Normal Incidence
  0.772745,                               ! Back Side Solar Reflectance at Normal Incidence
  0.176052,                               ! Visible Transmittance at Normal Incidence
  0.773948,                               ! Front Side Visible Reflectance at Normal Incidence
  0.773948,                               ! Back Side Visible Reflectance at Normal Incidence
  0,                                      ! Infrared Transmittance at Normal Incidence
  0.999,                                  ! Front Side Infrared Hemispherical Emissivity
  0.999,                                  ! Back Side Infrared Hemispherical Emissivity
  72.7123;                                ! Conductivity {W/m-K}

OS:ComponentCost:LineItem,
  {a5ac51d4-8a8d-4d11-a33c-92d934f6be4c}, ! Handle
  90.1-2001 Res B3 Skylight without Curb, ! Name
  ,                                       ! Type
  Construction,                           ! Line Item Type
  90.1-2001 Res B3 Skylight without Curb, ! Item Name
  ,                                       ! Object End Use Key
  ,                                       ! Quantity {dimensionless}
  539.136,                                ! Material Cost {$}
  CostPerArea;                            ! Material Cost Units

