
OS:Version,
  {d55dd5be-63b0-4aef-a061-d98e503014b8}, ! Handle
  0.9.3;                                  ! Version Identifier

OS:Material,
  {007d9ff7-9b5e-40cd-bd8f-598a61718da3}, ! Handle
  Roof Insulation [5],                    ! Name
  MediumRough,                            ! Roughness
  0.286906,                               ! Thickness {m}
  0.049,                                  ! Conductivity {W/m-K}
  265,                                    ! Density {kg/m3}
  836.8,                                  ! Specific Heat {J/kg-K}
  0.9,                                    ! Thermal Absorptance
  0.7,                                    ! Solar Absorptance
  0.7;                                    ! Visible Absorptance

OS:Construction,
  {a323d094-7cd0-4a9b-a3e5-351aed6e2d49}, ! Handle
  90.1-2001 Res B16 Roof Attic and Other, ! Name
  ,                                       ! Surface Rendering Name
  {cc2af624-8528-4233-9d40-22e066ee2a66}, ! Layer 1
  {2bf58a22-9ae5-49f7-9bc8-23c7d8b780bb}, ! Layer 2
  {007d9ff7-9b5e-40cd-bd8f-598a61718da3}, ! Layer 3
  {b258b912-0b25-4111-a78d-cb03180f39ad}; ! Layer 4

OS:Material,
  {cc2af624-8528-4233-9d40-22e066ee2a66}, ! Handle
  Wood Shingles,                          ! Name
  VeryRough,                              ! Roughness
  0.0178,                                 ! Thickness {m}
  0.115,                                  ! Conductivity {W/m-K}
  513,                                    ! Density {kg/m3}
  1255,                                   ! Specific Heat {J/kg-K}
  0.9,                                    ! Thermal Absorptance
  0.78,                                   ! Solar Absorptance
  0.78;                                   ! Visible Absorptance

OS:Material,
  {2bf58a22-9ae5-49f7-9bc8-23c7d8b780bb}, ! Handle
  1IN Wood Decking,                       ! Name
  MediumSmooth,                           ! Roughness
  0.0254,                                 ! Thickness {m}
  0.1211,                                 ! Conductivity {W/m-K}
  593,                                    ! Density {kg/m3}
  2510,                                   ! Specific Heat {J/kg-K}
  0.9,                                    ! Thermal Absorptance
  0.78,                                   ! Solar Absorptance
  0.78;                                   ! Visible Absorptance

OS:Material,
  {b258b912-0b25-4111-a78d-cb03180f39ad}, ! Handle
  1/2IN Gypsum,                           ! Name
  Smooth,                                 ! Roughness
  0.01271,                                ! Thickness {m}
  0.16,                                   ! Conductivity {W/m-K}
  784.9,                                  ! Density {kg/m3}
  830,                                    ! Specific Heat {J/kg-K}
  0.9,                                    ! Thermal Absorptance
  0.92,                                   ! Solar Absorptance
  0.92;                                   ! Visible Absorptance

OS:ComponentCost:LineItem,
  {d3cd0e02-b3aa-47b5-8f91-179951785605}, ! Handle
  90.1-2001 Res B16 Roof Attic and Other, ! Name
  ,                                       ! Type
  Construction,                           ! Line Item Type
  90.1-2001 Res B16 Roof Attic and Other, ! Item Name
  ,                                       ! Object End Use Key
  ,                                       ! Quantity {dimensionless}
  34.757,                                 ! Material Cost {$}
  CostPerArea;                            ! Material Cost Units

