
OS:Version,
  {7d0ca03b-fbe2-4674-a891-8e72431862b3}, ! Handle
  0.9.3;                                  ! Version Identifier

OS:Material,
  {a1ed0011-245e-4fc8-9bd8-1d19f938254d}, ! Handle
  Wall Insulation [53],                   ! Name
  MediumRough,                            ! Roughness
  0.139229,                               ! Thickness {m}
  0.045,                                  ! Conductivity {W/m-K}
  265,                                    ! Density {kg/m3}
  836.8,                                  ! Specific Heat {J/kg-K}
  0.9,                                    ! Thermal Absorptance
  0.7,                                    ! Solar Absorptance
  0.7;                                    ! Visible Absorptance

OS:Material,
  {90cc528a-e97a-44fe-8830-b634027e8e45}, ! Handle
  1/2IN Gypsum,                           ! Name
  Smooth,                                 ! Roughness
  0.01271,                                ! Thickness {m}
  0.16,                                   ! Conductivity {W/m-K}
  784.9,                                  ! Density {kg/m3}
  830,                                    ! Specific Heat {J/kg-K}
  0.9,                                    ! Thermal Absorptance
  0.92,                                   ! Solar Absorptance
  0.92;                                   ! Visible Absorptance

OS:ComponentCost:LineItem,
  {b9780ba2-b4ae-4b03-be42-3b157599d153}, ! Handle
  AEDG-SmOffice 7A Ext Wall Wood-Framed and Other, ! Name
  ,                                       ! Type
  Construction,                           ! Line Item Type
  AEDG-SmOffice 7A Ext Wall Wood-Framed and Other, ! Item Name
  ,                                       ! Object End Use Key
  ,                                       ! Quantity {dimensionless}
  80.504,                                 ! Material Cost {$}
  CostPerArea;                            ! Material Cost Units

OS:Material,
  {1e7914ab-e26e-4974-9134-6d752bd27cee}, ! Handle
  Wood Siding,                            ! Name
  MediumSmooth,                           ! Roughness
  0.01,                                   ! Thickness {m}
  0.11,                                   ! Conductivity {W/m-K}
  544.62,                                 ! Density {kg/m3}
  1210,                                   ! Specific Heat {J/kg-K}
  0.9,                                    ! Thermal Absorptance
  0.78,                                   ! Solar Absorptance
  0.78;                                   ! Visible Absorptance

OS:Construction,
  {51f2d984-2a97-4132-8851-6e4f4c35f40a}, ! Handle
  AEDG-SmOffice 7A Ext Wall Wood-Framed and Other, ! Name
  ,                                       ! Surface Rendering Name
  {1e7914ab-e26e-4974-9134-6d752bd27cee}, ! Layer 1
  {a1ed0011-245e-4fc8-9bd8-1d19f938254d}, ! Layer 2
  {90cc528a-e97a-44fe-8830-b634027e8e45}; ! Layer 3

