
OS:Version,
  {730b38af-d84e-41cf-b300-2e1727976082}, ! Handle
  0.9.3;                                  ! Version Identifier

OS:Construction,
  {8dff6474-7db8-42ed-9c0c-11d9bc2cc7b2}, ! Handle
  90.1-2001 Nonres B21 Ext Wall Metal Building, ! Name
  ,                                       ! Surface Rendering Name
  {d86fe8aa-9cd7-49c1-8616-d8a2cd714878}, ! Layer 1
  {fbc0ba0c-4c99-4b5e-a83e-baa0b1e95833}, ! Layer 2
  {a8de6260-3773-4730-aa8a-429889b87ada}; ! Layer 3

OS:Material,
  {d86fe8aa-9cd7-49c1-8616-d8a2cd714878}, ! Handle
  Metal Siding,                           ! Name
  Smooth,                                 ! Roughness
  0.0015,                                 ! Thickness {m}
  44.96,                                  ! Conductivity {W/m-K}
  7688.86,                                ! Density {kg/m3}
  410,                                    ! Specific Heat {J/kg-K}
  0.9,                                    ! Thermal Absorptance
  0.2,                                    ! Solar Absorptance
  0.2;                                    ! Visible Absorptance

OS:Material,
  {fbc0ba0c-4c99-4b5e-a83e-baa0b1e95833}, ! Handle
  Wall Insulation [9],                    ! Name
  MediumRough,                            ! Roughness
  0.128642,                               ! Thickness {m}
  0.045,                                  ! Conductivity {W/m-K}
  265,                                    ! Density {kg/m3}
  836.8,                                  ! Specific Heat {J/kg-K}
  0.9,                                    ! Thermal Absorptance
  0.7,                                    ! Solar Absorptance
  0.7;                                    ! Visible Absorptance

OS:Material,
  {a8de6260-3773-4730-aa8a-429889b87ada}, ! Handle
  1/2IN Gypsum,                           ! Name
  Smooth,                                 ! Roughness
  0.01271,                                ! Thickness {m}
  0.16,                                   ! Conductivity {W/m-K}
  784.9,                                  ! Density {kg/m3}
  830,                                    ! Specific Heat {J/kg-K}
  0.9,                                    ! Thermal Absorptance
  0.92,                                   ! Solar Absorptance
  0.92;                                   ! Visible Absorptance

OS:ComponentCost:LineItem,
  {f1ca70ba-1be7-47ca-85b7-6c4a48621061}, ! Handle
  90.1-2001 Nonres B21 Ext Wall Metal Building, ! Name
  ,                                       ! Type
  Construction,                           ! Line Item Type
  90.1-2001 Nonres B21 Ext Wall Metal Building, ! Item Name
  ,                                       ! Object End Use Key
  ,                                       ! Quantity {dimensionless}
  107.698,                                ! Material Cost {$}
  CostPerArea;                            ! Material Cost Units

