
OS:Version,
  {4ae95d1e-954f-42bf-980d-a38588352458}, ! Handle
  0.9.3;                                  ! Version Identifier

OS:Material,
  {4b4932ac-2fe1-418f-bb1b-a561e554a940}, ! Handle
  1/2IN Gypsum,                           ! Name
  Smooth,                                 ! Roughness
  0.01271,                                ! Thickness {m}
  0.16,                                   ! Conductivity {W/m-K}
  784.9,                                  ! Density {kg/m3}
  830,                                    ! Specific Heat {J/kg-K}
  0.9,                                    ! Thermal Absorptance
  0.92,                                   ! Solar Absorptance
  0.92;                                   ! Visible Absorptance

OS:Material:NoMass,
  {68b02106-3cf6-42cc-b2be-e244c32e359b}, ! Handle
  MAT-SHEATH,                             ! Name
  Rough,                                  ! Roughness
  0.36256,                                ! Thermal Resistance {m2-K/W}
  0.9,                                    ! Thermal Absorptance
  0.7,                                    ! Solar Absorptance
  0.7;                                    ! Visible Absorptance

OS:Material,
  {b1814164-8945-4f11-a454-927c7812b1c9}, ! Handle
  Wall Insulation [1],                    ! Name
  MediumRough,                            ! Roughness
  0.0373223,                              ! Thickness {m}
  0.045,                                  ! Conductivity {W/m-K}
  265,                                    ! Density {kg/m3}
  836.8,                                  ! Specific Heat {J/kg-K}
  0.9,                                    ! Thermal Absorptance
  0.7,                                    ! Solar Absorptance
  0.7;                                    ! Visible Absorptance

OS:ComponentCost:LineItem,
  {47ea9702-69b4-4518-b00c-505b399c3250}, ! Handle
  90.1-2001 Nonres B8 Ext Wall Steel-Framed, ! Name
  ,                                       ! Type
  Construction,                           ! Line Item Type
  90.1-2001 Nonres B8 Ext Wall Steel-Framed, ! Item Name
  ,                                       ! Object End Use Key
  ,                                       ! Quantity {dimensionless}
  87.08,                                  ! Material Cost {$}
  CostPerArea;                            ! Material Cost Units

OS:Construction,
  {90e76b10-30f8-43fb-9a16-eebf0c0e2bf6}, ! Handle
  90.1-2001 Nonres B8 Ext Wall Steel-Framed, ! Name
  ,                                       ! Surface Rendering Name
  {68b02106-3cf6-42cc-b2be-e244c32e359b}, ! Layer 1
  {b1814164-8945-4f11-a454-927c7812b1c9}, ! Layer 2
  {4b4932ac-2fe1-418f-bb1b-a561e554a940}; ! Layer 3

