
OS:Version,
  {4b68522a-8eae-496e-87ab-5df364c03363}, ! Handle
  0.9.3;                                  ! Version Identifier

OS:Construction,
  {35bedc38-210c-4381-98cb-7d9110e82279}, ! Handle
  90.1-1999 Res B21 Window Fixed,         ! Name
  ,                                       ! Surface Rendering Name
  {6be06b3a-d638-4039-bf0c-c2a926985529}; ! Layer 1

OS:WindowMaterial:Glazing,
  {6be06b3a-d638-4039-bf0c-c2a926985529}, ! Handle
  Theoretical Glass [106],                ! Name
  SpectralAverage,                        ! Optical Data Type
  ,                                       ! Window Glass Spectral Data Set Name
  0.003,                                  ! Thickness {m}
  0.618894,                               ! Solar Transmittance at Normal Incidence
  0.331106,                               ! Front Side Solar Reflectance at Normal Incidence
  0.331106,                               ! Back Side Solar Reflectance at Normal Incidence
  0.639644,                               ! Visible Transmittance at Normal Incidence
  0.310356,                               ! Front Side Visible Reflectance at Normal Incidence
  0.310356,                               ! Back Side Visible Reflectance at Normal Incidence
  0,                                      ! Infrared Transmittance at Normal Incidence
  0.9,                                    ! Front Side Infrared Hemispherical Emissivity
  0.9,                                    ! Back Side Infrared Hemispherical Emissivity
  0.0089232;                              ! Conductivity {W/m-K}

OS:ComponentCost:LineItem,
  {5f1034de-435f-4c7f-93cc-0ffd6d47cc84}, ! Handle
  90.1-1999 Res B21 Window Fixed,         ! Name
  ,                                       ! Type
  Construction,                           ! Line Item Type
  90.1-1999 Res B21 Window Fixed,         ! Item Name
  ,                                       ! Object End Use Key
  ,                                       ! Quantity {dimensionless}
  572.599,                                ! Material Cost {$}
  CostPerArea;                            ! Material Cost Units

