
OS:Version,
  {78efc77b-55e6-4f95-8a4b-73fad41d3f73}, ! Handle
  0.9.3;                                  ! Version Identifier

OS:Construction,
  {7a7c5d26-4d56-4872-a150-894d18064031}, ! Handle
  189.1-2009 Res 2A Roof IEAD,            ! Name
  ,                                       ! Surface Rendering Name
  {6397927c-0758-407a-8f6f-386e51eaddcf}, ! Layer 1
  {aac2effd-30f0-4927-8760-1bc3da11b790}, ! Layer 2
  {002936da-fadf-4cf7-955d-caa6b9b91715}; ! Layer 3

OS:Material,
  {6397927c-0758-407a-8f6f-386e51eaddcf}, ! Handle
  Roof Membrane,                          ! Name
  VeryRough,                              ! Roughness
  0.0095,                                 ! Thickness {m}
  0.16,                                   ! Conductivity {W/m-K}
  1121.29,                                ! Density {kg/m3}
  1460,                                   ! Specific Heat {J/kg-K}
  0.9,                                    ! Thermal Absorptance
  0.7,                                    ! Solar Absorptance
  0.7;                                    ! Visible Absorptance

OS:Material,
  {aac2effd-30f0-4927-8760-1bc3da11b790}, ! Handle
  Roof Insulation [21],                   ! Name
  MediumRough,                            ! Roughness
  0.210538,                               ! Thickness {m}
  0.049,                                  ! Conductivity {W/m-K}
  265,                                    ! Density {kg/m3}
  836.8,                                  ! Specific Heat {J/kg-K}
  0.9,                                    ! Thermal Absorptance
  0.7,                                    ! Solar Absorptance
  0.7;                                    ! Visible Absorptance

OS:Material,
  {002936da-fadf-4cf7-955d-caa6b9b91715}, ! Handle
  Metal Decking,                          ! Name
  MediumSmooth,                           ! Roughness
  0.001524,                               ! Thickness {m}
  45.006,                                 ! Conductivity {W/m-K}
  7680,                                   ! Density {kg/m3}
  418.4,                                  ! Specific Heat {J/kg-K}
  0.9,                                    ! Thermal Absorptance
  0.7,                                    ! Solar Absorptance
  0.3;                                    ! Visible Absorptance

OS:ComponentCost:LineItem,
  {a99a51f6-0961-4386-9ad7-16c14164d64b}, ! Handle
  189.1-2009 Res 2A Roof IEAD,            ! Name
  ,                                       ! Type
  Construction,                           ! Line Item Type
  189.1-2009 Res 2A Roof IEAD,            ! Item Name
  ,                                       ! Object End Use Key
  ,                                       ! Quantity {dimensionless}
  56.652,                                 ! Material Cost {$}
  CostPerArea;                            ! Material Cost Units

OS:ComponentData,
  {7fb5df1a-e587-4048-9430-b9d283a00e2d}, ! Handle
  Component Data 1,                       ! Name
  {03610faa-de82-4d37-8240-dd79d21083be}, ! UUID
  {81a494ca-a7fa-4223-94aa-f4ffef76db97}, ! Version UUID
  1363980962,                             ! Creation Timestamp
  1363980962,                             ! Version Timestamp
  {7a7c5d26-4d56-4872-a150-894d18064031}, ! Name of Object 1
  {6397927c-0758-407a-8f6f-386e51eaddcf}, ! Name of Object 2
  {aac2effd-30f0-4927-8760-1bc3da11b790}, ! Name of Object 3
  {002936da-fadf-4cf7-955d-caa6b9b91715}, ! Name of Object 4
  {a99a51f6-0961-4386-9ad7-16c14164d64b}; ! Name of Object 5

