
OS:Version,
  {a3514f6f-a8f7-40cc-8d52-015dce0bbff6}, ! Handle
  0.9.3;                                  ! Version Identifier

OS:Material,
  {41bf948f-00e8-4dc8-88a8-f7ffb24eb689}, ! Handle
  Roof Insulation [21],                   ! Name
  MediumRough,                            ! Roughness
  0.210538,                               ! Thickness {m}
  0.049,                                  ! Conductivity {W/m-K}
  265,                                    ! Density {kg/m3}
  836.8,                                  ! Specific Heat {J/kg-K}
  0.9,                                    ! Thermal Absorptance
  0.7,                                    ! Solar Absorptance
  0.7;                                    ! Visible Absorptance

OS:Construction,
  {3839b876-dc54-4ef6-940c-5ff2300c2bd0}, ! Handle
  189.1-2009 Res 2A Roof IEAD,            ! Name
  ,                                       ! Surface Rendering Name
  {2bf48c44-f3de-4c6e-8164-abae57da11d5}, ! Layer 1
  {41bf948f-00e8-4dc8-88a8-f7ffb24eb689}, ! Layer 2
  {cb14865e-5527-4ced-807d-ace11b7a37a3}; ! Layer 3

OS:Material,
  {2bf48c44-f3de-4c6e-8164-abae57da11d5}, ! Handle
  Roof Membrane,                          ! Name
  VeryRough,                              ! Roughness
  0.0095,                                 ! Thickness {m}
  0.16,                                   ! Conductivity {W/m-K}
  1121.29,                                ! Density {kg/m3}
  1460,                                   ! Specific Heat {J/kg-K}
  0.9,                                    ! Thermal Absorptance
  0.7,                                    ! Solar Absorptance
  0.7;                                    ! Visible Absorptance

OS:Material,
  {cb14865e-5527-4ced-807d-ace11b7a37a3}, ! Handle
  Metal Decking,                          ! Name
  MediumSmooth,                           ! Roughness
  0.001524,                               ! Thickness {m}
  45.006,                                 ! Conductivity {W/m-K}
  7680,                                   ! Density {kg/m3}
  418.4,                                  ! Specific Heat {J/kg-K}
  0.9,                                    ! Thermal Absorptance
  0.7,                                    ! Solar Absorptance
  0.3;                                    ! Visible Absorptance

OS:ComponentCost:LineItem,
  {23030723-24fa-4dc6-afbe-337138981c6f}, ! Handle
  189.1-2009 Res 2A Roof IEAD,            ! Name
  ,                                       ! Type
  Construction,                           ! Line Item Type
  189.1-2009 Res 2A Roof IEAD,            ! Item Name
  ,                                       ! Object End Use Key
  ,                                       ! Quantity {dimensionless}
  56.652,                                 ! Material Cost {$}
  CostPerArea;                            ! Material Cost Units

