
OS:Version,
  {bdac02b7-0169-41b0-9a19-6ea0ae7af8ca}, ! Handle
  0.9.3;                                  ! Version Identifier

OS:Construction,
  {008245ee-2ff0-4831-a335-8a8f28955472}, ! Handle
  189.1-2009 Res 7A Ext Slab Unheated - 4in Slab without Carpet, ! Name
  ,                                       ! Surface Rendering Name
  {111fb8e3-399c-4110-9f58-b99fad700485}; ! Layer 1

OS:Material,
  {111fb8e3-399c-4110-9f58-b99fad700485}, ! Handle
  MAT-CC05 4 HW CONCRETE,                 ! Name
  Rough,                                  ! Roughness
  0.1016,                                 ! Thickness {m}
  1.311,                                  ! Conductivity {W/m-K}
  2240,                                   ! Density {kg/m3}
  836.8,                                  ! Specific Heat {J/kg-K}
  0.9,                                    ! Thermal Absorptance
  0.7,                                    ! Solar Absorptance
  0.7;                                    ! Visible Absorptance

OS:ComponentCost:LineItem,
  {c820a56e-7315-4160-9a39-d017b72e46c3}, ! Handle
  189.1-2009 Res 7A Ext Slab Unheated - 4in Slab without Carpet, ! Name
  ,                                       ! Type
  Construction,                           ! Line Item Type
  189.1-2009 Res 7A Ext Slab Unheated - 4in Slab without Carpet, ! Item Name
  ,                                       ! Object End Use Key
  ,                                       ! Quantity {dimensionless}
  45.52,                                  ! Material Cost {$}
  CostPerArea;                            ! Material Cost Units

OS:ComponentData,
  {a8d5f92c-5f5d-456b-9aae-1095cb01387e}, ! Handle
  Component Data 1,                       ! Name
  {18890571-a35e-4d89-8170-4ab6007bbf07}, ! UUID
  {e5ee5a20-cddd-4cec-a3b3-19b467c3c7af}, ! Version UUID
  1363980985,                             ! Creation Timestamp
  1363980985,                             ! Version Timestamp
  {008245ee-2ff0-4831-a335-8a8f28955472}, ! Name of Object 1
  {111fb8e3-399c-4110-9f58-b99fad700485}, ! Name of Object 2
  {c820a56e-7315-4160-9a39-d017b72e46c3}; ! Name of Object 3

