
OS:Version,
  {cb5414fa-5cb7-4e52-9d36-ea306667ada2}, ! Handle
  0.9.3;                                  ! Version Identifier

OS:Construction,
  {c6ba3d48-b5c4-48d8-aef1-82b0fa12df4c}, ! Handle
  189.1-2009 Res 7A Ext Slab Unheated - 4in Slab without Carpet, ! Name
  ,                                       ! Surface Rendering Name
  {f33b4647-ee05-48e6-bad8-cc918b9ae12b}; ! Layer 1

OS:Material,
  {f33b4647-ee05-48e6-bad8-cc918b9ae12b}, ! Handle
  MAT-CC05 4 HW CONCRETE,                 ! Name
  Rough,                                  ! Roughness
  0.1016,                                 ! Thickness {m}
  1.311,                                  ! Conductivity {W/m-K}
  2240,                                   ! Density {kg/m3}
  836.8,                                  ! Specific Heat {J/kg-K}
  0.9,                                    ! Thermal Absorptance
  0.7,                                    ! Solar Absorptance
  0.7;                                    ! Visible Absorptance

OS:ComponentCost:LineItem,
  {b28dba4a-d157-45b0-8fcb-fa1d1ae2ab87}, ! Handle
  189.1-2009 Res 7A Ext Slab Unheated - 4in Slab without Carpet, ! Name
  ,                                       ! Type
  Construction,                           ! Line Item Type
  189.1-2009 Res 7A Ext Slab Unheated - 4in Slab without Carpet, ! Item Name
  ,                                       ! Object End Use Key
  ,                                       ! Quantity {dimensionless}
  45.52,                                  ! Material Cost {$}
  CostPerArea;                            ! Material Cost Units

