
OS:Version,
  {95e4b0ba-57a6-49d3-85b2-929b4cc39375}, ! Handle
  0.9.3;                                  ! Version Identifier

OS:Material,
  {5d3e70d6-61c6-49d6-8d4b-3d8baf6879d5}, ! Handle
  Metal Siding,                           ! Name
  Smooth,                                 ! Roughness
  0.0015,                                 ! Thickness {m}
  44.96,                                  ! Conductivity {W/m-K}
  7688.86,                                ! Density {kg/m3}
  410,                                    ! Specific Heat {J/kg-K}
  0.9,                                    ! Thermal Absorptance
  0.2,                                    ! Solar Absorptance
  0.2;                                    ! Visible Absorptance

OS:Material,
  {ca01d18c-db7e-48ac-988c-5e10f572d073}, ! Handle
  1/2IN Gypsum,                           ! Name
  Smooth,                                 ! Roughness
  0.01271,                                ! Thickness {m}
  0.16,                                   ! Conductivity {W/m-K}
  784.9,                                  ! Density {kg/m3}
  830,                                    ! Specific Heat {J/kg-K}
  0.9,                                    ! Thermal Absorptance
  0.92,                                   ! Solar Absorptance
  0.92;                                   ! Visible Absorptance

OS:Construction,
  {586faca7-2c2e-4f2b-b977-d8ada845336d}, ! Handle
  90.1-1999 Nonres B4 Ext Wall Metal Building, ! Name
  ,                                       ! Surface Rendering Name
  {5d3e70d6-61c6-49d6-8d4b-3d8baf6879d5}, ! Layer 1
  {6642228c-d828-43a7-96ab-14a213454066}, ! Layer 2
  {ca01d18c-db7e-48ac-988c-5e10f572d073}; ! Layer 3

OS:Material,
  {6642228c-d828-43a7-96ab-14a213454066}, ! Handle
  Wall Insulation [3],                    ! Name
  MediumRough,                            ! Roughness
  0.0541893,                              ! Thickness {m}
  0.045,                                  ! Conductivity {W/m-K}
  265,                                    ! Density {kg/m3}
  836.8,                                  ! Specific Heat {J/kg-K}
  0.9,                                    ! Thermal Absorptance
  0.7,                                    ! Solar Absorptance
  0.7;                                    ! Visible Absorptance

OS:ComponentCost:LineItem,
  {5c32d907-760d-48a2-9f2d-8a845ef3b37b}, ! Handle
  90.1-1999 Nonres B4 Ext Wall Metal Building, ! Name
  ,                                       ! Type
  Construction,                           ! Line Item Type
  90.1-1999 Nonres B4 Ext Wall Metal Building, ! Item Name
  ,                                       ! Object End Use Key
  ,                                       ! Quantity {dimensionless}
  98.719,                                 ! Material Cost {$}
  CostPerArea;                            ! Material Cost Units

