
OS:Version,
  {1c095326-8a89-47bc-a473-1a28c87196a3}, ! Handle
  0.9.3;                                  ! Version Identifier

OS:Construction,
  {3be584da-9a91-4f34-b22f-abc2f96b1a98}, ! Handle
  90.1-2004 Nonres 2A Skylight without Curb, ! Name
  ,                                       ! Surface Rendering Name
  {b5ce46df-7ed9-434b-838e-a97d2d551da3}; ! Layer 1

OS:WindowMaterial:Glazing,
  {b5ce46df-7ed9-434b-838e-a97d2d551da3}, ! Handle
  Theoretical Glass [128],                ! Name
  SpectralAverage,                        ! Optical Data Type
  ,                                       ! Window Glass Spectral Data Set Name
  0.003,                                  ! Thickness {m}
  0.346104,                               ! Solar Transmittance at Normal Incidence
  0.603896,                               ! Front Side Solar Reflectance at Normal Incidence
  0.603896,                               ! Back Side Solar Reflectance at Normal Incidence
  0.457336,                               ! Visible Transmittance at Normal Incidence
  0.492664,                               ! Front Side Visible Reflectance at Normal Incidence
  0.492664,                               ! Back Side Visible Reflectance at Normal Incidence
  0,                                      ! Infrared Transmittance at Normal Incidence
  0.999,                                  ! Front Side Infrared Hemispherical Emissivity
  0.999,                                  ! Back Side Infrared Hemispherical Emissivity
  299.383;                                ! Conductivity {W/m-K}

OS:ComponentCost:LineItem,
  {4ff06b06-cb09-46d8-9793-719a0bc75a57}, ! Handle
  90.1-2004 Nonres 2A Skylight without Curb, ! Name
  ,                                       ! Type
  Construction,                           ! Line Item Type
  90.1-2004 Nonres 2A Skylight without Curb, ! Item Name
  ,                                       ! Object End Use Key
  ,                                       ! Quantity {dimensionless}
  498.248,                                ! Material Cost {$}
  CostPerArea;                            ! Material Cost Units

