
OS:Version,
  {ceeafe86-7d67-476c-a338-efb53c0ad516}, ! Handle
  0.9.3;                                  ! Version Identifier

OS:Construction,
  {cda4836e-adf2-4f42-8f0a-e486a064540a}, ! Handle
  90.1-2004 Nonres 2A Skylight without Curb, ! Name
  ,                                       ! Surface Rendering Name
  {da75b1a5-3fe4-4b06-86d9-2355b25baa3a}; ! Layer 1

OS:WindowMaterial:Glazing,
  {da75b1a5-3fe4-4b06-86d9-2355b25baa3a}, ! Handle
  Theoretical Glass [128],                ! Name
  SpectralAverage,                        ! Optical Data Type
  ,                                       ! Window Glass Spectral Data Set Name
  0.003,                                  ! Thickness {m}
  0.346104,                               ! Solar Transmittance at Normal Incidence
  0.603896,                               ! Front Side Solar Reflectance at Normal Incidence
  0.603896,                               ! Back Side Solar Reflectance at Normal Incidence
  0.457336,                               ! Visible Transmittance at Normal Incidence
  0.492664,                               ! Front Side Visible Reflectance at Normal Incidence
  0.492664,                               ! Back Side Visible Reflectance at Normal Incidence
  0,                                      ! Infrared Transmittance at Normal Incidence
  0.999,                                  ! Front Side Infrared Hemispherical Emissivity
  0.999,                                  ! Back Side Infrared Hemispherical Emissivity
  299.383;                                ! Conductivity {W/m-K}

OS:ComponentCost:LineItem,
  {4d9f8e03-f426-4510-8796-26c91dd93925}, ! Handle
  90.1-2004 Nonres 2A Skylight without Curb, ! Name
  ,                                       ! Type
  Construction,                           ! Line Item Type
  90.1-2004 Nonres 2A Skylight without Curb, ! Item Name
  ,                                       ! Object End Use Key
  ,                                       ! Quantity {dimensionless}
  498.248,                                ! Material Cost {$}
  CostPerArea;                            ! Material Cost Units

OS:ComponentData,
  {9fef414c-7e3a-45ab-b7b5-316935a52061}, ! Handle
  Component Data 1,                       ! Name
  {20735701-d2d5-497c-b720-e360358295c8}, ! UUID
  {9ff29610-fe38-4a62-b049-7298497f5507}, ! Version UUID
  1363981644,                             ! Creation Timestamp
  1363981644,                             ! Version Timestamp
  {cda4836e-adf2-4f42-8f0a-e486a064540a}, ! Name of Object 1
  {da75b1a5-3fe4-4b06-86d9-2355b25baa3a}, ! Name of Object 2
  {4d9f8e03-f426-4510-8796-26c91dd93925}; ! Name of Object 3

