
OS:Version,
  {e935bb6f-496a-46a3-b430-4c81a75be869}, ! Handle
  0.9.3;                                  ! Version Identifier

OS:Construction,
  {c8cf74d5-a0d2-4f99-9c80-76f33ee08565}, ! Handle
  AEDG-SmOffice 8A Skylight without Curb, ! Name
  ,                                       ! Surface Rendering Name
  {dba13b58-cdc0-4adf-aa93-903a03099fe7}; ! Layer 1

OS:WindowMaterial:Glazing,
  {dba13b58-cdc0-4adf-aa93-903a03099fe7}, ! Handle
  Theoretical Glass [45],                 ! Name
  SpectralAverage,                        ! Optical Data Type
  ,                                       ! Window Glass Spectral Data Set Name
  0.003,                                  ! Thickness {m}
  0.482092,                               ! Solar Transmittance at Normal Incidence
  0.467908,                               ! Front Side Solar Reflectance at Normal Incidence
  0.467908,                               ! Back Side Solar Reflectance at Normal Incidence
  0.529698,                               ! Visible Transmittance at Normal Incidence
  0.420302,                               ! Front Side Visible Reflectance at Normal Incidence
  0.420302,                               ! Back Side Visible Reflectance at Normal Incidence
  0,                                      ! Infrared Transmittance at Normal Incidence
  0.9,                                    ! Front Side Infrared Hemispherical Emissivity
  0.9,                                    ! Back Side Infrared Hemispherical Emissivity
  0.0205762;                              ! Conductivity {W/m-K}

