
OS:Version,
  {1daf87f1-ce10-4e32-895f-fed721053e91}, ! Handle
  0.9.3;                                  ! Version Identifier

OS:WindowMaterial:Glazing,
  {15950723-17e3-458d-98be-8120dc1d967e}, ! Handle
  Theoretical Glass [62],                 ! Name
  SpectralAverage,                        ! Optical Data Type
  ,                                       ! Window Glass Spectral Data Set Name
  0.003,                                  ! Thickness {m}
  0.316118,                               ! Solar Transmittance at Normal Incidence
  0.633882,                               ! Front Side Solar Reflectance at Normal Incidence
  0.633882,                               ! Back Side Solar Reflectance at Normal Incidence
  0.330719,                               ! Visible Transmittance at Normal Incidence
  0.619281,                               ! Front Side Visible Reflectance at Normal Incidence
  0.619281,                               ! Back Side Visible Reflectance at Normal Incidence
  0,                                      ! Infrared Transmittance at Normal Incidence
  0.999,                                  ! Front Side Infrared Hemispherical Emissivity
  0.999,                                  ! Back Side Infrared Hemispherical Emissivity
  9.36219;                                ! Conductivity {W/m-K}

OS:Construction,
  {b9a2503d-aa60-4e95-a734-8735913cfd1a}, ! Handle
  90.1-1999 Res B2 Window Fixed,          ! Name
  ,                                       ! Surface Rendering Name
  {15950723-17e3-458d-98be-8120dc1d967e}; ! Layer 1

OS:ComponentCost:LineItem,
  {3cb7d61c-730c-4e06-96c7-a0dc03e51d66}, ! Handle
  90.1-1999 Res B2 Window Fixed,          ! Name
  ,                                       ! Type
  Construction,                           ! Line Item Type
  90.1-1999 Res B2 Window Fixed,          ! Item Name
  ,                                       ! Object End Use Key
  ,                                       ! Quantity {dimensionless}
  498.248,                                ! Material Cost {$}
  CostPerArea;                            ! Material Cost Units

