
OS:Version,
  {fe975925-9423-4b6d-90bb-0970dac44baf}, ! Handle
  0.9.3;                                  ! Version Identifier

OS:Construction,
  {5801c73e-cca6-4215-865a-cea63f2e521d}, ! Handle
  90.1-1999 Res B2 Window Fixed,          ! Name
  ,                                       ! Surface Rendering Name
  {a2bfc24a-c2b1-4587-8a1a-b5807907c991}; ! Layer 1

OS:WindowMaterial:Glazing,
  {a2bfc24a-c2b1-4587-8a1a-b5807907c991}, ! Handle
  Theoretical Glass [62],                 ! Name
  SpectralAverage,                        ! Optical Data Type
  ,                                       ! Window Glass Spectral Data Set Name
  0.003,                                  ! Thickness {m}
  0.316118,                               ! Solar Transmittance at Normal Incidence
  0.633882,                               ! Front Side Solar Reflectance at Normal Incidence
  0.633882,                               ! Back Side Solar Reflectance at Normal Incidence
  0.330719,                               ! Visible Transmittance at Normal Incidence
  0.619281,                               ! Front Side Visible Reflectance at Normal Incidence
  0.619281,                               ! Back Side Visible Reflectance at Normal Incidence
  0,                                      ! Infrared Transmittance at Normal Incidence
  0.999,                                  ! Front Side Infrared Hemispherical Emissivity
  0.999,                                  ! Back Side Infrared Hemispherical Emissivity
  9.36219;                                ! Conductivity {W/m-K}

OS:ComponentCost:LineItem,
  {578fa890-912b-4dc9-a782-a2b0b388ffda}, ! Handle
  90.1-1999 Res B2 Window Fixed,          ! Name
  ,                                       ! Type
  Construction,                           ! Line Item Type
  90.1-1999 Res B2 Window Fixed,          ! Item Name
  ,                                       ! Object End Use Key
  ,                                       ! Quantity {dimensionless}
  498.248,                                ! Material Cost {$}
  CostPerArea;                            ! Material Cost Units

OS:ComponentData,
  {8911a93b-1d58-43bf-a05d-b62c3b3f49ea}, ! Handle
  Component Data 1,                       ! Name
  {0349de55-5ef6-4752-9e08-88800bfa6ac5}, ! UUID
  {9fa73f0b-d7f6-4b98-be3b-4b67dde57376}, ! Version UUID
  1363981171,                             ! Creation Timestamp
  1363981171,                             ! Version Timestamp
  {5801c73e-cca6-4215-865a-cea63f2e521d}, ! Name of Object 1
  {a2bfc24a-c2b1-4587-8a1a-b5807907c991}, ! Name of Object 2
  {578fa890-912b-4dc9-a782-a2b0b388ffda}; ! Name of Object 3

