
OS:Version,
  {95642e2a-4bac-4725-a65a-ede5fe66c580}, ! Handle
  0.9.3;                                  ! Version Identifier

OS:Construction,
  {358fa0f5-c908-415d-bcf5-f1f9c6bcd41f}, ! Handle
  AEDG K12 Nonres 5B Skylight without Curb, ! Name
  ,                                       ! Surface Rendering Name
  {5d186ab9-23e9-4cd5-882d-24a67ced519d}; ! Layer 1

OS:WindowMaterial:Glazing,
  {5d186ab9-23e9-4cd5-882d-24a67ced519d}, ! Handle
  Theoretical Glass [255],                ! Name
  SpectralAverage,                        ! Optical Data Type
  ,                                       ! Window Glass Spectral Data Set Name
  0.003,                                  ! Thickness {m}
  0.472234,                               ! Solar Transmittance at Normal Incidence
  0.477766,                               ! Front Side Solar Reflectance at Normal Incidence
  0.477766,                               ! Back Side Solar Reflectance at Normal Incidence
  0.621562,                               ! Visible Transmittance at Normal Incidence
  0.328438,                               ! Front Side Visible Reflectance at Normal Incidence
  0.328438,                               ! Back Side Visible Reflectance at Normal Incidence
  0,                                      ! Infrared Transmittance at Normal Incidence
  0.9,                                    ! Front Side Infrared Hemispherical Emissivity
  0.9,                                    ! Back Side Infrared Hemispherical Emissivity
  0.0324872;                              ! Conductivity {W/m-K}

OS:ComponentCost:LineItem,
  {9830aca7-3d48-434b-a941-e8e23fd095f4}, ! Handle
  AEDG K12 Nonres 5B Skylight without Curb, ! Name
  ,                                       ! Type
  Construction,                           ! Line Item Type
  AEDG K12 Nonres 5B Skylight without Curb, ! Item Name
  ,                                       ! Object End Use Key
  ,                                       ! Quantity {dimensionless}
  508.47,                                 ! Material Cost {$}
  CostPerArea;                            ! Material Cost Units

OS:ComponentData,
  {0600cb01-9565-4a52-ab3f-374cbf8ea658}, ! Handle
  Component Data 1,                       ! Name
  {eecf31eb-d7cf-4894-b841-dc2b5e4ff795}, ! UUID
  {6ca5eb34-2f69-403c-81cb-eae30937c3f4}, ! Version UUID
  1363981898,                             ! Creation Timestamp
  1363981898,                             ! Version Timestamp
  {358fa0f5-c908-415d-bcf5-f1f9c6bcd41f}, ! Name of Object 1
  {5d186ab9-23e9-4cd5-882d-24a67ced519d}, ! Name of Object 2
  {9830aca7-3d48-434b-a941-e8e23fd095f4}; ! Name of Object 3

