
OS:Version,
  {336d805d-2344-4d39-a6ad-056a2733f0e4}, ! Handle
  0.9.3;                                  ! Version Identifier

OS:Construction,
  {6a12dfd2-9b07-4bf4-981a-4a703ab6a6b8}, ! Handle
  AEDG K12 Nonres 5B Skylight without Curb, ! Name
  ,                                       ! Surface Rendering Name
  {4f0bcf8b-5ddd-4a0b-b5a8-a25a50b3836a}; ! Layer 1

OS:WindowMaterial:Glazing,
  {4f0bcf8b-5ddd-4a0b-b5a8-a25a50b3836a}, ! Handle
  Theoretical Glass [255],                ! Name
  SpectralAverage,                        ! Optical Data Type
  ,                                       ! Window Glass Spectral Data Set Name
  0.003,                                  ! Thickness {m}
  0.472234,                               ! Solar Transmittance at Normal Incidence
  0.477766,                               ! Front Side Solar Reflectance at Normal Incidence
  0.477766,                               ! Back Side Solar Reflectance at Normal Incidence
  0.621562,                               ! Visible Transmittance at Normal Incidence
  0.328438,                               ! Front Side Visible Reflectance at Normal Incidence
  0.328438,                               ! Back Side Visible Reflectance at Normal Incidence
  0,                                      ! Infrared Transmittance at Normal Incidence
  0.9,                                    ! Front Side Infrared Hemispherical Emissivity
  0.9,                                    ! Back Side Infrared Hemispherical Emissivity
  0.0324872;                              ! Conductivity {W/m-K}

OS:ComponentCost:LineItem,
  {ab6583e3-b8ae-4053-8dcf-07be1c61c544}, ! Handle
  AEDG K12 Nonres 5B Skylight without Curb, ! Name
  ,                                       ! Type
  Construction,                           ! Line Item Type
  AEDG K12 Nonres 5B Skylight without Curb, ! Item Name
  ,                                       ! Object End Use Key
  ,                                       ! Quantity {dimensionless}
  508.47,                                 ! Material Cost {$}
  CostPerArea;                            ! Material Cost Units

