
OS:Version,
  {8ed04dcb-6778-44fd-b7d2-475717bc8134}, ! Handle
  0.9.3;                                  ! Version Identifier

OS:Material,
  {d1d9853a-f900-4c97-8117-946cfef57a95}, ! Handle
  Wood Shingles [1],                      ! Name
  VeryRough,                              ! Roughness
  0.0178,                                 ! Thickness {m}
  0.115,                                  ! Conductivity {W/m-K}
  513,                                    ! Density {kg/m3}
  1255,                                   ! Specific Heat {J/kg-K}
  0.9,                                    ! Thermal Absorptance
  0.78,                                   ! Solar Absorptance
  0.85;                                   ! Visible Absorptance

OS:ComponentCost:LineItem,
  {f181a123-e9fd-4acf-9074-f90a88a75aae}, ! Handle
  Title 24-2008 Nonres 10 Roof Attic and Other, ! Name
  ,                                       ! Type
  Construction,                           ! Line Item Type
  Title 24-2008 Nonres 10 Roof Attic and Other, ! Item Name
  ,                                       ! Object End Use Key
  ,                                       ! Quantity {dimensionless}
  33.009,                                 ! Material Cost {$}
  CostPerArea;                            ! Material Cost Units

OS:Material,
  {e89f9f8f-0ab5-45e0-8c23-7b404cafca98}, ! Handle
  1IN Wood Decking,                       ! Name
  MediumSmooth,                           ! Roughness
  0.0254,                                 ! Thickness {m}
  0.1211,                                 ! Conductivity {W/m-K}
  593,                                    ! Density {kg/m3}
  2510,                                   ! Specific Heat {J/kg-K}
  0.9,                                    ! Thermal Absorptance
  0.78,                                   ! Solar Absorptance
  0.78;                                   ! Visible Absorptance

OS:Material,
  {2be33f5b-ccc9-470d-9268-f141bd747602}, ! Handle
  Roof Insulation [106],                  ! Name
  MediumRough,                            ! Roughness
  0.190659,                               ! Thickness {m}
  0.049,                                  ! Conductivity {W/m-K}
  265,                                    ! Density {kg/m3}
  836.8,                                  ! Specific Heat {J/kg-K}
  0.9,                                    ! Thermal Absorptance
  0.7,                                    ! Solar Absorptance
  0.7;                                    ! Visible Absorptance

OS:Material,
  {9ed895fb-6e94-45fb-a640-29b67104c5f2}, ! Handle
  1/2IN Gypsum,                           ! Name
  Smooth,                                 ! Roughness
  0.01271,                                ! Thickness {m}
  0.16,                                   ! Conductivity {W/m-K}
  784.9,                                  ! Density {kg/m3}
  830,                                    ! Specific Heat {J/kg-K}
  0.9,                                    ! Thermal Absorptance
  0.92,                                   ! Solar Absorptance
  0.92;                                   ! Visible Absorptance

OS:Construction,
  {850ed8cf-683e-4f60-bdf3-371856335dc9}, ! Handle
  Title 24-2008 Nonres 10 Roof Attic and Other, ! Name
  ,                                       ! Surface Rendering Name
  {d1d9853a-f900-4c97-8117-946cfef57a95}, ! Layer 1
  {e89f9f8f-0ab5-45e0-8c23-7b404cafca98}, ! Layer 2
  {2be33f5b-ccc9-470d-9268-f141bd747602}, ! Layer 3
  {9ed895fb-6e94-45fb-a640-29b67104c5f2}; ! Layer 4

