
OS:Version,
  {1007df08-14d0-4599-bb7a-173084251583}, ! Handle
  0.9.3;                                  ! Version Identifier

OS:Construction,
  {a7f5518d-f966-4dc6-9a8f-c3e0eb3f5282}, ! Handle
  189.1-2009 Res 5B Ext Wall Wood-Framed and Other, ! Name
  ,                                       ! Surface Rendering Name
  {3ac2d86d-c3c3-483a-af7a-cf6504ba0d01}, ! Layer 1
  {d8218f12-c6c0-425d-8b28-04454f6fc29a}, ! Layer 2
  {6cd72173-52a9-41c6-b230-9b11aa160d62}; ! Layer 3

OS:Material,
  {3ac2d86d-c3c3-483a-af7a-cf6504ba0d01}, ! Handle
  Wood Siding,                            ! Name
  MediumSmooth,                           ! Roughness
  0.01,                                   ! Thickness {m}
  0.11,                                   ! Conductivity {W/m-K}
  544.62,                                 ! Density {kg/m3}
  1210,                                   ! Specific Heat {J/kg-K}
  0.9,                                    ! Thermal Absorptance
  0.78,                                   ! Solar Absorptance
  0.78;                                   ! Visible Absorptance

OS:Material,
  {d8218f12-c6c0-425d-8b28-04454f6fc29a}, ! Handle
  Wall Insulation [43],                   ! Name
  MediumRough,                            ! Roughness
  0.15833,                                ! Thickness {m}
  0.045,                                  ! Conductivity {W/m-K}
  265,                                    ! Density {kg/m3}
  836.8,                                  ! Specific Heat {J/kg-K}
  0.9,                                    ! Thermal Absorptance
  0.7,                                    ! Solar Absorptance
  0.7;                                    ! Visible Absorptance

OS:Material,
  {6cd72173-52a9-41c6-b230-9b11aa160d62}, ! Handle
  1/2IN Gypsum,                           ! Name
  Smooth,                                 ! Roughness
  0.01271,                                ! Thickness {m}
  0.16,                                   ! Conductivity {W/m-K}
  784.9,                                  ! Density {kg/m3}
  830,                                    ! Specific Heat {J/kg-K}
  0.9,                                    ! Thermal Absorptance
  0.92,                                   ! Solar Absorptance
  0.92;                                   ! Visible Absorptance

OS:ComponentCost:LineItem,
  {b4a9095c-4b03-45b9-b6b6-23cfda25fe49}, ! Handle
  189.1-2009 Res 5B Ext Wall Wood-Framed and Other, ! Name
  ,                                       ! Type
  Construction,                           ! Line Item Type
  189.1-2009 Res 5B Ext Wall Wood-Framed and Other, ! Item Name
  ,                                       ! Object End Use Key
  ,                                       ! Quantity {dimensionless}
  82.923,                                 ! Material Cost {$}
  CostPerArea;                            ! Material Cost Units

OS:ComponentData,
  {b38933e0-fe08-4faa-bbba-52be10119619}, ! Handle
  Component Data 1,                       ! Name
  {7d1bee48-3d5f-4dca-97c9-fcc7e66e617c}, ! UUID
  {c59c030e-c967-4f7c-90c9-a81768b1eb07}, ! Version UUID
  1363980976,                             ! Creation Timestamp
  1363980976,                             ! Version Timestamp
  {a7f5518d-f966-4dc6-9a8f-c3e0eb3f5282}, ! Name of Object 1
  {3ac2d86d-c3c3-483a-af7a-cf6504ba0d01}, ! Name of Object 2
  {d8218f12-c6c0-425d-8b28-04454f6fc29a}, ! Name of Object 3
  {6cd72173-52a9-41c6-b230-9b11aa160d62}, ! Name of Object 4
  {b4a9095c-4b03-45b9-b6b6-23cfda25fe49}; ! Name of Object 5

