
OS:Version,
  {1c5741f9-e175-4f20-82a0-c7652df1e941}, ! Handle
  0.9.3;                                  ! Version Identifier

OS:Material,
  {acc25ddf-d023-4b1e-b837-d7b779fb0559}, ! Handle
  Wood Siding,                            ! Name
  MediumSmooth,                           ! Roughness
  0.01,                                   ! Thickness {m}
  0.11,                                   ! Conductivity {W/m-K}
  544.62,                                 ! Density {kg/m3}
  1210,                                   ! Specific Heat {J/kg-K}
  0.9,                                    ! Thermal Absorptance
  0.78,                                   ! Solar Absorptance
  0.78;                                   ! Visible Absorptance

OS:Material,
  {1d85370d-af20-432e-9044-481ccc65d1dd}, ! Handle
  Wall Insulation [43],                   ! Name
  MediumRough,                            ! Roughness
  0.15833,                                ! Thickness {m}
  0.045,                                  ! Conductivity {W/m-K}
  265,                                    ! Density {kg/m3}
  836.8,                                  ! Specific Heat {J/kg-K}
  0.9,                                    ! Thermal Absorptance
  0.7,                                    ! Solar Absorptance
  0.7;                                    ! Visible Absorptance

OS:ComponentCost:LineItem,
  {a75287ee-2983-473d-978d-ab4792e85c96}, ! Handle
  189.1-2009 Res 5B Ext Wall Wood-Framed and Other, ! Name
  ,                                       ! Type
  Construction,                           ! Line Item Type
  189.1-2009 Res 5B Ext Wall Wood-Framed and Other, ! Item Name
  ,                                       ! Object End Use Key
  ,                                       ! Quantity {dimensionless}
  82.923,                                 ! Material Cost {$}
  CostPerArea;                            ! Material Cost Units

OS:Construction,
  {cdeb5079-cc1e-4730-8f6b-a60a0b4bdd1e}, ! Handle
  189.1-2009 Res 5B Ext Wall Wood-Framed and Other, ! Name
  ,                                       ! Surface Rendering Name
  {acc25ddf-d023-4b1e-b837-d7b779fb0559}, ! Layer 1
  {1d85370d-af20-432e-9044-481ccc65d1dd}, ! Layer 2
  {d9612415-927b-42c6-ae00-1975eb74102b}; ! Layer 3

OS:Material,
  {d9612415-927b-42c6-ae00-1975eb74102b}, ! Handle
  1/2IN Gypsum,                           ! Name
  Smooth,                                 ! Roughness
  0.01271,                                ! Thickness {m}
  0.16,                                   ! Conductivity {W/m-K}
  784.9,                                  ! Density {kg/m3}
  830,                                    ! Specific Heat {J/kg-K}
  0.9,                                    ! Thermal Absorptance
  0.92,                                   ! Solar Absorptance
  0.92;                                   ! Visible Absorptance

