
OS:Version,
  {51fad558-fffb-4da5-826e-a3494454f2fa}, ! Handle
  0.9.3;                                  ! Version Identifier

OS:Construction,
  {83ac7877-2a67-4ccb-96a2-944b6aa4470e}, ! Handle
  189.1-2009 Res 7A Ext Wall Metal Building, ! Name
  ,                                       ! Surface Rendering Name
  {9d546ad8-c44b-4e87-9514-587c45cf4704}, ! Layer 1
  {499e2816-7f56-4886-b0af-edbdcae49295}, ! Layer 2
  {cac43927-7407-4392-b4d3-4b7767475a84}; ! Layer 3

OS:Material,
  {9d546ad8-c44b-4e87-9514-587c45cf4704}, ! Handle
  Metal Siding,                           ! Name
  Smooth,                                 ! Roughness
  0.0015,                                 ! Thickness {m}
  44.96,                                  ! Conductivity {W/m-K}
  7688.86,                                ! Density {kg/m3}
  410,                                    ! Specific Heat {J/kg-K}
  0.9,                                    ! Thermal Absorptance
  0.2,                                    ! Solar Absorptance
  0.2;                                    ! Visible Absorptance

OS:Material,
  {499e2816-7f56-4886-b0af-edbdcae49295}, ! Handle
  Wall Insulation [45],                   ! Name
  MediumRough,                            ! Roughness
  0.194132,                               ! Thickness {m}
  0.045,                                  ! Conductivity {W/m-K}
  265,                                    ! Density {kg/m3}
  836.8,                                  ! Specific Heat {J/kg-K}
  0.9,                                    ! Thermal Absorptance
  0.7,                                    ! Solar Absorptance
  0.7;                                    ! Visible Absorptance

OS:Material,
  {cac43927-7407-4392-b4d3-4b7767475a84}, ! Handle
  1/2IN Gypsum,                           ! Name
  Smooth,                                 ! Roughness
  0.01271,                                ! Thickness {m}
  0.16,                                   ! Conductivity {W/m-K}
  784.9,                                  ! Density {kg/m3}
  830,                                    ! Specific Heat {J/kg-K}
  0.9,                                    ! Thermal Absorptance
  0.92,                                   ! Solar Absorptance
  0.92;                                   ! Visible Absorptance

OS:ComponentCost:LineItem,
  {30d97a45-920c-4a83-a2a1-761d6900c5b6}, ! Handle
  189.1-2009 Res 7A Ext Wall Metal Building, ! Name
  ,                                       ! Type
  Construction,                           ! Line Item Type
  189.1-2009 Res 7A Ext Wall Metal Building, ! Item Name
  ,                                       ! Object End Use Key
  ,                                       ! Quantity {dimensionless}
  122.122,                                ! Material Cost {$}
  CostPerArea;                            ! Material Cost Units

OS:ComponentData,
  {c4baf4da-a40d-4389-b879-434b690cd50e}, ! Handle
  Component Data 1,                       ! Name
  {9b4ec4d4-a194-4cfd-8fcd-b50ebe636fb7}, ! UUID
  {3998fc1c-4609-43e8-a0e0-223f589388bd}, ! Version UUID
  1363980984,                             ! Creation Timestamp
  1363980984,                             ! Version Timestamp
  {83ac7877-2a67-4ccb-96a2-944b6aa4470e}, ! Name of Object 1
  {9d546ad8-c44b-4e87-9514-587c45cf4704}, ! Name of Object 2
  {499e2816-7f56-4886-b0af-edbdcae49295}, ! Name of Object 3
  {cac43927-7407-4392-b4d3-4b7767475a84}, ! Name of Object 4
  {30d97a45-920c-4a83-a2a1-761d6900c5b6}; ! Name of Object 5

