
OS:Version,
  {a299942a-606b-4357-80aa-71a51ee96bab}, ! Handle
  0.9.3;                                  ! Version Identifier

OS:Construction,
  {56631f42-2e20-4345-87bb-a74bbc4ad9a8}, ! Handle
  90.1-2004 Nonres 1A Ext Slab Unheated - 8in Slab without Carpet, ! Name
  ,                                       ! Surface Rendering Name
  {f8aaa4bc-8001-450b-a282-8f083cc354c4}; ! Layer 1

OS:Material,
  {f8aaa4bc-8001-450b-a282-8f083cc354c4}, ! Handle
  MAT-CC05 8 HW CONCRETE,                 ! Name
  Rough,                                  ! Roughness
  0.20321,                                ! Thickness {m}
  1.311,                                  ! Conductivity {W/m-K}
  2240,                                   ! Density {kg/m3}
  836.8,                                  ! Specific Heat {J/kg-K}
  0.9,                                    ! Thermal Absorptance
  0.7,                                    ! Solar Absorptance
  0.7;                                    ! Visible Absorptance

OS:ComponentCost:LineItem,
  {0598fed0-6c43-4347-ac80-362515262117}, ! Handle
  90.1-2004 Nonres 1A Ext Slab Unheated - 8in Slab without Carpet, ! Name
  ,                                       ! Type
  Construction,                           ! Line Item Type
  90.1-2004 Nonres 1A Ext Slab Unheated - 8in Slab without Carpet, ! Item Name
  ,                                       ! Object End Use Key
  ,                                       ! Quantity {dimensionless}
  45.52,                                  ! Material Cost {$}
  CostPerArea;                            ! Material Cost Units

