
OS:Version,
  {0fb35177-b768-4e09-bc74-7184a79415de}, ! Handle
  0.9.3;                                  ! Version Identifier

OS:Construction,
  {3065e7e9-1cc8-4740-bc29-541cf55c3142}, ! Handle
  90.1-2001 Nonres B12 Int Wall,          ! Name
  ,                                       ! Surface Rendering Name
  {f3056e66-a60b-4d26-a5a7-bb8c58a3c235}, ! Layer 1
  {f3056e66-a60b-4d26-a5a7-bb8c58a3c235}; ! Layer 2

OS:Material,
  {f3056e66-a60b-4d26-a5a7-bb8c58a3c235}, ! Handle
  GP01 1/2 GYPSUM,                        ! Name
  Smooth,                                 ! Roughness
  0.01271,                                ! Thickness {m}
  0.16,                                   ! Conductivity {W/m-K}
  800,                                    ! Density {kg/m3}
  1090,                                   ! Specific Heat {J/kg-K}
  0.9,                                    ! Thermal Absorptance
  0.7,                                    ! Solar Absorptance
  0.5;                                    ! Visible Absorptance

OS:ComponentCost:LineItem,
  {157b188d-6444-4768-af05-ca154d27eb50}, ! Handle
  90.1-2001 Nonres B12 Int Wall,          ! Name
  ,                                       ! Type
  Construction,                           ! Line Item Type
  90.1-2001 Nonres B12 Int Wall,          ! Item Name
  ,                                       ! Object End Use Key
  ,                                       ! Quantity {dimensionless}
  0,                                      ! Material Cost {$}
  CostPerArea;                            ! Material Cost Units

OS:ComponentData,
  {f0e5fb59-348d-4ea1-9362-9bae79493a18}, ! Handle
  Component Data 1,                       ! Name
  {a8725d66-c06b-483b-86ef-d7bbb2fbb03c}, ! UUID
  {1911cf06-d42b-4cfc-953e-8c9e27b911dd}, ! Version UUID
  1363981349,                             ! Creation Timestamp
  1363981349,                             ! Version Timestamp
  {3065e7e9-1cc8-4740-bc29-541cf55c3142}, ! Name of Object 1
  {f3056e66-a60b-4d26-a5a7-bb8c58a3c235}, ! Name of Object 2
  {157b188d-6444-4768-af05-ca154d27eb50}; ! Name of Object 3

