
OS:Version,
  {d0280c4e-9bb8-499f-8d6f-637f9ff807ac}, !- Handle
  1.1.0;                                  !- Version Identifier

OS:Construction,
  {e7d5b5f6-ba52-49b9-8e33-6c52a85239eb}, !- Handle
  Dbl Grey 6mm/13mm Arg,                  !- Name
  ,                                       !- Surface Rendering Name
  {14c32c5d-d0d7-4963-b65a-514241e779e9}, !- Layer 1
  {8d16b7cb-44f5-4911-b8cb-be6fbddff48a}, !- Layer 2
  {2e14ed86-2642-4185-8334-460eab554ac9}; !- Layer 3

OS:WindowMaterial:Glazing,
  {14c32c5d-d0d7-4963-b65a-514241e779e9}, !- Handle
  GREY 6MM,                               !- Name
  SpectralAverage,                        !- Optical Data Type
  ,                                       !- Window Glass Spectral Data Set Name
  0.006,                                  !- Thickness {m}
  0.455,                                  !- Solar Transmittance at Normal Incidence
  0.053,                                  !- Front Side Solar Reflectance at Normal Incidence
  0.053,                                  !- Back Side Solar Reflectance at Normal Incidence
  0.431,                                  !- Visible Transmittance at Normal Incidence
  0.052,                                  !- Front Side Visible Reflectance at Normal Incidence
  0.052,                                  !- Back Side Visible Reflectance at Normal Incidence
  0,                                      !- Infrared Transmittance at Normal Incidence
  0.84,                                   !- Front Side Infrared Hemispherical Emissivity
  0.84,                                   !- Back Side Infrared Hemispherical Emissivity
  0.9;                                    !- Conductivity {W/m-K}

OS:WindowMaterial:Gas,
  {8d16b7cb-44f5-4911-b8cb-be6fbddff48a}, !- Handle
  ARGON 13MM,                             !- Name
  Argon,                                  !- Gas Type
  0.0127;                                 !- Thickness {m}

OS:WindowMaterial:Glazing,
  {2e14ed86-2642-4185-8334-460eab554ac9}, !- Handle
  CLEAR 6MM,                              !- Name
  SpectralAverage,                        !- Optical Data Type
  ,                                       !- Window Glass Spectral Data Set Name
  0.006,                                  !- Thickness {m}
  0.775,                                  !- Solar Transmittance at Normal Incidence
  0.071,                                  !- Front Side Solar Reflectance at Normal Incidence
  0.071,                                  !- Back Side Solar Reflectance at Normal Incidence
  0.881,                                  !- Visible Transmittance at Normal Incidence
  0.08,                                   !- Front Side Visible Reflectance at Normal Incidence
  0.08,                                   !- Back Side Visible Reflectance at Normal Incidence
  0,                                      !- Infrared Transmittance at Normal Incidence
  0.84,                                   !- Front Side Infrared Hemispherical Emissivity
  0.84,                                   !- Back Side Infrared Hemispherical Emissivity
  0.9;                                    !- Conductivity {W/m-K}

