
OS:Version,
  {a4dfff60-3296-4ce2-af7a-28fe4922a5c9}, ! Handle
  0.9.3;                                  ! Version Identifier

OS:Material,
  {de940655-6812-4a9c-9a6e-8fd21f6dfd06}, ! Handle
  Wall Insulation [66],                   ! Name
  MediumRough,                            ! Roughness
  0.2088,                                 ! Thickness {m}
  0.045,                                  ! Conductivity {W/m-K}
  265,                                    ! Density {kg/m3}
  836.8,                                  ! Specific Heat {J/kg-K}
  0.9,                                    ! Thermal Absorptance
  0.7,                                    ! Solar Absorptance
  0.7;                                    ! Visible Absorptance

OS:Material,
  {6db0a6a8-b5c4-4e49-881c-da5ec4f47016}, ! Handle
  1/2IN Gypsum,                           ! Name
  Smooth,                                 ! Roughness
  0.01271,                                ! Thickness {m}
  0.16,                                   ! Conductivity {W/m-K}
  784.9,                                  ! Density {kg/m3}
  830,                                    ! Specific Heat {J/kg-K}
  0.9,                                    ! Thermal Absorptance
  0.92,                                   ! Solar Absorptance
  0.92;                                   ! Visible Absorptance

OS:Construction,
  {85794db0-387a-4d40-a8d4-d25834960971}, ! Handle
  AEDG SHC Nonres 8A Ext Wall Steel-Framed, ! Name
  ,                                       ! Surface Rendering Name
  {058cc58a-ef60-4292-bcca-d7d2e7f75677}, ! Layer 1
  {de940655-6812-4a9c-9a6e-8fd21f6dfd06}, ! Layer 2
  {6db0a6a8-b5c4-4e49-881c-da5ec4f47016}; ! Layer 3

OS:Material:NoMass,
  {058cc58a-ef60-4292-bcca-d7d2e7f75677}, ! Handle
  MAT-SHEATH,                             ! Name
  Rough,                                  ! Roughness
  0.36256,                                ! Thermal Resistance {m2-K/W}
  0.9,                                    ! Thermal Absorptance
  0.7,                                    ! Solar Absorptance
  0.7;                                    ! Visible Absorptance

OS:ComponentCost:LineItem,
  {6c36e4ba-3aeb-4254-83fe-49ccaf1ab02b}, ! Handle
  AEDG SHC Nonres 8A Ext Wall Steel-Framed, ! Name
  ,                                       ! Type
  Construction,                           ! Line Item Type
  AEDG SHC Nonres 8A Ext Wall Steel-Framed, ! Item Name
  ,                                       ! Object End Use Key
  ,                                       ! Quantity {dimensionless}
  0,                                      ! Material Cost {$}
  CostPerArea;                            ! Material Cost Units

