
OS:Version,
  {5d355ea8-f893-4664-b6a7-3649a1ce3db2}, ! Handle
  0.9.3;                                  ! Version Identifier

OS:Construction,
  {8bc20011-3fad-443e-bb81-9c06a8282e2c}, ! Handle
  AEDG K12 Nonres 1A Roof IEAD,           ! Name
  ,                                       ! Surface Rendering Name
  {87949df0-d4b3-4ad3-b6a3-0c39cdcb8097}, ! Layer 1
  {c4fb9063-586f-4a0b-9f1d-55e4c4976a41}, ! Layer 2
  {d1751e61-acc4-493b-b4a6-4afa1fa87685}; ! Layer 3

OS:Material,
  {87949df0-d4b3-4ad3-b6a3-0c39cdcb8097}, ! Handle
  Roof Membrane,                          ! Name
  VeryRough,                              ! Roughness
  0.0095,                                 ! Thickness {m}
  0.16,                                   ! Conductivity {W/m-K}
  1121.29,                                ! Density {kg/m3}
  1460,                                   ! Specific Heat {J/kg-K}
  0.9,                                    ! Thermal Absorptance
  0.7,                                    ! Solar Absorptance
  0.7;                                    ! Visible Absorptance

OS:Material,
  {c4fb9063-586f-4a0b-9f1d-55e4c4976a41}, ! Handle
  Roof Insulation,                        ! Name
  MediumRough,                            ! Roughness
  0.124958,                               ! Thickness {m}
  0.049,                                  ! Conductivity {W/m-K}
  265,                                    ! Density {kg/m3}
  836.8,                                  ! Specific Heat {J/kg-K}
  0.9,                                    ! Thermal Absorptance
  0.7,                                    ! Solar Absorptance
  0.7;                                    ! Visible Absorptance

OS:Material,
  {d1751e61-acc4-493b-b4a6-4afa1fa87685}, ! Handle
  Metal Decking,                          ! Name
  MediumSmooth,                           ! Roughness
  0.001524,                               ! Thickness {m}
  45.006,                                 ! Conductivity {W/m-K}
  7680,                                   ! Density {kg/m3}
  418.4,                                  ! Specific Heat {J/kg-K}
  0.9,                                    ! Thermal Absorptance
  0.7,                                    ! Solar Absorptance
  0.3;                                    ! Visible Absorptance

OS:ComponentCost:LineItem,
  {e3ea9629-2ee5-4a71-aabf-35b4c9696f14}, ! Handle
  AEDG K12 Nonres 1A Roof IEAD,           ! Name
  ,                                       ! Type
  Construction,                           ! Line Item Type
  AEDG K12 Nonres 1A Roof IEAD,           ! Item Name
  ,                                       ! Object End Use Key
  ,                                       ! Quantity {dimensionless}
  98.49,                                  ! Material Cost {$}
  CostPerArea;                            ! Material Cost Units

