
OS:Version,
  {a442cfb2-deae-4174-bfaa-cc91cae09003}, ! Handle
  0.9.3;                                  ! Version Identifier

OS:ComponentCost:LineItem,
  {77e7eca4-892b-4c58-8385-5e6256f3bf38}, ! Handle
  AEDG SHC Nonres 1A Ext Wall Steel-Framed, ! Name
  ,                                       ! Type
  Construction,                           ! Line Item Type
  AEDG SHC Nonres 1A Ext Wall Steel-Framed, ! Item Name
  ,                                       ! Object End Use Key
  ,                                       ! Quantity {dimensionless}
  0,                                      ! Material Cost {$}
  CostPerArea;                            ! Material Cost Units

OS:Construction,
  {246abf07-31df-456a-815b-69ec4fceab14}, ! Handle
  AEDG SHC Nonres 1A Ext Wall Steel-Framed, ! Name
  ,                                       ! Surface Rendering Name
  {e50a5336-510d-42a1-b714-11d2f1198a5a}, ! Layer 1
  {87ef04cd-4cfb-4aa6-8820-9b1596077f11}, ! Layer 2
  {61d10a42-cbe8-4c4d-9deb-61070da3f744}; ! Layer 3

OS:Material:NoMass,
  {e50a5336-510d-42a1-b714-11d2f1198a5a}, ! Handle
  MAT-SHEATH,                             ! Name
  Rough,                                  ! Roughness
  0.36256,                                ! Thermal Resistance {m2-K/W}
  0.9,                                    ! Thermal Absorptance
  0.7,                                    ! Solar Absorptance
  0.7;                                    ! Visible Absorptance

OS:Material,
  {87ef04cd-4cfb-4aa6-8820-9b1596077f11}, ! Handle
  Wall Insulation [59],                   ! Name
  MediumRough,                            ! Roughness
  0.0965812,                              ! Thickness {m}
  0.045,                                  ! Conductivity {W/m-K}
  265,                                    ! Density {kg/m3}
  836.8,                                  ! Specific Heat {J/kg-K}
  0.9,                                    ! Thermal Absorptance
  0.7,                                    ! Solar Absorptance
  0.7;                                    ! Visible Absorptance

OS:Material,
  {61d10a42-cbe8-4c4d-9deb-61070da3f744}, ! Handle
  1/2IN Gypsum,                           ! Name
  Smooth,                                 ! Roughness
  0.01271,                                ! Thickness {m}
  0.16,                                   ! Conductivity {W/m-K}
  784.9,                                  ! Density {kg/m3}
  830,                                    ! Specific Heat {J/kg-K}
  0.9,                                    ! Thermal Absorptance
  0.92,                                   ! Solar Absorptance
  0.92;                                   ! Visible Absorptance

