
OS:Version,
  {209ff977-a355-43e1-84c0-6586a690591e}, ! Handle
  0.9.3;                                  ! Version Identifier

OS:Material,
  {044cde6f-0e97-4b1f-b733-c7260ffdc324}, ! Handle
  1/2IN Gypsum,                           ! Name
  Smooth,                                 ! Roughness
  0.01271,                                ! Thickness {m}
  0.16,                                   ! Conductivity {W/m-K}
  784.9,                                  ! Density {kg/m3}
  830,                                    ! Specific Heat {J/kg-K}
  0.9,                                    ! Thermal Absorptance
  0.92,                                   ! Solar Absorptance
  0.92;                                   ! Visible Absorptance

OS:Construction,
  {dad2c1af-5e95-4f26-b94b-5a4ce790e8a2}, ! Handle
  189.1-2009 Nonres 3A Ext Wall Metal Building, ! Name
  ,                                       ! Surface Rendering Name
  {2f6aa3dd-0b23-4d2f-a02a-57ad165b9074}, ! Layer 1
  {7b8af2c1-4afd-4a41-b21d-547b4cf4d9fa}, ! Layer 2
  {044cde6f-0e97-4b1f-b733-c7260ffdc324}; ! Layer 3

OS:Material,
  {2f6aa3dd-0b23-4d2f-a02a-57ad165b9074}, ! Handle
  Metal Siding,                           ! Name
  Smooth,                                 ! Roughness
  0.0015,                                 ! Thickness {m}
  44.96,                                  ! Conductivity {W/m-K}
  7688.86,                                ! Density {kg/m3}
  410,                                    ! Specific Heat {J/kg-K}
  0.9,                                    ! Thermal Absorptance
  0.2,                                    ! Solar Absorptance
  0.2;                                    ! Visible Absorptance

OS:Material,
  {7b8af2c1-4afd-4a41-b21d-547b4cf4d9fa}, ! Handle
  Wall Insulation [32],                   ! Name
  MediumRough,                            ! Roughness
  0.0896793,                              ! Thickness {m}
  0.045,                                  ! Conductivity {W/m-K}
  265,                                    ! Density {kg/m3}
  836.8,                                  ! Specific Heat {J/kg-K}
  0.9,                                    ! Thermal Absorptance
  0.7,                                    ! Solar Absorptance
  0.7;                                    ! Visible Absorptance

OS:ComponentCost:LineItem,
  {8c1b905f-acd5-4073-abd3-42981a201fd0}, ! Handle
  189.1-2009 Nonres 3A Ext Wall Metal Building, ! Name
  ,                                       ! Type
  Construction,                           ! Line Item Type
  189.1-2009 Nonres 3A Ext Wall Metal Building, ! Item Name
  ,                                       ! Object End Use Key
  ,                                       ! Quantity {dimensionless}
  101.679,                                ! Material Cost {$}
  CostPerArea;                            ! Material Cost Units

