
OS:Version,
  {706284a8-0fb3-40aa-8a11-dff6ac36171d}, ! Handle
  0.9.3;                                  ! Version Identifier

OS:Construction,
  {e6117cdd-b6aa-46aa-82ee-d598cae58925}, ! Handle
  90.1-2001 Nonres B9 Ext Slab Unheated - 8in Slab without Carpet, ! Name
  ,                                       ! Surface Rendering Name
  {0c34bf79-5c2c-4676-8fb2-2ed989a97f13}; ! Layer 1

OS:Material,
  {0c34bf79-5c2c-4676-8fb2-2ed989a97f13}, ! Handle
  MAT-CC05 8 HW CONCRETE,                 ! Name
  Rough,                                  ! Roughness
  0.20321,                                ! Thickness {m}
  1.311,                                  ! Conductivity {W/m-K}
  2240,                                   ! Density {kg/m3}
  836.8,                                  ! Specific Heat {J/kg-K}
  0.9,                                    ! Thermal Absorptance
  0.7,                                    ! Solar Absorptance
  0.7;                                    ! Visible Absorptance

OS:ComponentCost:LineItem,
  {90975e16-a70d-46d7-9d02-5767712eb07c}, ! Handle
  90.1-2001 Nonres B9 Ext Slab Unheated - 8in Slab without Carpet, ! Name
  ,                                       ! Type
  Construction,                           ! Line Item Type
  90.1-2001 Nonres B9 Ext Slab Unheated - 8in Slab without Carpet, ! Item Name
  ,                                       ! Object End Use Key
  ,                                       ! Quantity {dimensionless}
  45.52,                                  ! Material Cost {$}
  CostPerArea;                            ! Material Cost Units

