
OS:Version,
  {1bca1936-243a-4f5d-8f17-f028cd325071}, ! Handle
  0.9.3;                                  ! Version Identifier

OS:Construction,
  {fbf2f414-c4d2-4332-9719-81a65613aa66}, ! Handle
  90.1-2001 Res B16 Ext Wall Mass,        ! Name
  ,                                       ! Surface Rendering Name
  {63260529-723f-4b34-97d9-d480c6741720}, ! Layer 1
  {68ab18c4-ec75-4244-94fd-b2904bc632bd}, ! Layer 2
  {d692acbd-4434-493a-8df7-c6f2ec1ee33d}, ! Layer 3
  {f9f5cdc6-8890-479c-b0b6-623a3642988f}; ! Layer 4

OS:Material,
  {63260529-723f-4b34-97d9-d480c6741720}, ! Handle
  1IN Stucco,                             ! Name
  Smooth,                                 ! Roughness
  0.0253,                                 ! Thickness {m}
  0.6918,                                 ! Conductivity {W/m-K}
  1858,                                   ! Density {kg/m3}
  837,                                    ! Specific Heat {J/kg-K}
  0.9,                                    ! Thermal Absorptance
  0.92,                                   ! Solar Absorptance
  0.92;                                   ! Visible Absorptance

OS:Material,
  {68ab18c4-ec75-4244-94fd-b2904bc632bd}, ! Handle
  8IN Concrete HW,                        ! Name
  MediumRough,                            ! Roughness
  0.2033,                                 ! Thickness {m}
  1.7296,                                 ! Conductivity {W/m-K}
  2243,                                   ! Density {kg/m3}
  837,                                    ! Specific Heat {J/kg-K}
  0.9,                                    ! Thermal Absorptance
  0.65,                                   ! Solar Absorptance
  0.65;                                   ! Visible Absorptance

OS:Material,
  {d692acbd-4434-493a-8df7-c6f2ec1ee33d}, ! Handle
  Wall Insulation [5],                    ! Name
  MediumRough,                            ! Roughness
  0.0453274,                              ! Thickness {m}
  0.0432,                                 ! Conductivity {W/m-K}
  91,                                     ! Density {kg/m3}
  837,                                    ! Specific Heat {J/kg-K}
  0.9,                                    ! Thermal Absorptance
  0.5,                                    ! Solar Absorptance
  0.5;                                    ! Visible Absorptance

OS:Material,
  {f9f5cdc6-8890-479c-b0b6-623a3642988f}, ! Handle
  1/2IN Gypsum,                           ! Name
  Smooth,                                 ! Roughness
  0.01271,                                ! Thickness {m}
  0.16,                                   ! Conductivity {W/m-K}
  784.9,                                  ! Density {kg/m3}
  830,                                    ! Specific Heat {J/kg-K}
  0.9,                                    ! Thermal Absorptance
  0.92,                                   ! Solar Absorptance
  0.92;                                   ! Visible Absorptance

OS:ComponentCost:LineItem,
  {5f920b22-bfb3-4fa4-ab28-28dfd7f264fc}, ! Handle
  90.1-2001 Res B16 Ext Wall Mass,        ! Name
  ,                                       ! Type
  Construction,                           ! Line Item Type
  90.1-2001 Res B16 Ext Wall Mass,        ! Item Name
  ,                                       ! Object End Use Key
  ,                                       ! Quantity {dimensionless}
  61.418,                                 ! Material Cost {$}
  CostPerArea;                            ! Material Cost Units

OS:ComponentData,
  {94000e7c-2bdc-4fcf-b844-dd78d7ad21b9}, ! Handle
  Component Data 1,                       ! Name
  {a4c276b4-8aa4-440b-af70-6b990eb310d7}, ! UUID
  {deb0cbd0-03fc-45aa-81eb-0b54200ab3df}, ! Version UUID
  1363981542,                             ! Creation Timestamp
  1363981542,                             ! Version Timestamp
  {fbf2f414-c4d2-4332-9719-81a65613aa66}, ! Name of Object 1
  {63260529-723f-4b34-97d9-d480c6741720}, ! Name of Object 2
  {68ab18c4-ec75-4244-94fd-b2904bc632bd}, ! Name of Object 3
  {d692acbd-4434-493a-8df7-c6f2ec1ee33d}, ! Name of Object 4
  {f9f5cdc6-8890-479c-b0b6-623a3642988f}, ! Name of Object 5
  {5f920b22-bfb3-4fa4-ab28-28dfd7f264fc}; ! Name of Object 6

