
OS:Version,
  {42517c5a-c061-4bba-a501-3c94dbd2b50f}, ! Handle
  0.9.3;                                  ! Version Identifier

OS:Material,
  {078ca386-e53e-4433-9084-00587853fbeb}, ! Handle
  MAT-CC05 8 HW CONCRETE,                 ! Name
  Rough,                                  ! Roughness
  0.20321,                                ! Thickness {m}
  1.311,                                  ! Conductivity {W/m-K}
  2240,                                   ! Density {kg/m3}
  836.8,                                  ! Specific Heat {J/kg-K}
  0.9,                                    ! Thermal Absorptance
  0.7,                                    ! Solar Absorptance
  0.7;                                    ! Visible Absorptance

OS:Construction,
  {358592c1-037b-4942-a5a4-cb0c8c069a62}, ! Handle
  90.1-2001 Nonres B19 Ext Slab Unheated - 8in Slab without Carpet, ! Name
  ,                                       ! Surface Rendering Name
  {078ca386-e53e-4433-9084-00587853fbeb}; ! Layer 1

OS:ComponentCost:LineItem,
  {886301b8-c5d9-4d78-8396-f459df734742}, ! Handle
  90.1-2001 Nonres B19 Ext Slab Unheated - 8in Slab without Carpet, ! Name
  ,                                       ! Type
  Construction,                           ! Line Item Type
  90.1-2001 Nonres B19 Ext Slab Unheated - 8in Slab without Carpet, ! Item Name
  ,                                       ! Object End Use Key
  ,                                       ! Quantity {dimensionless}
  45.52,                                  ! Material Cost {$}
  CostPerArea;                            ! Material Cost Units

