
OS:Version,
  {146a5929-9f6a-433e-862f-97a321f3fe76}, ! Handle
  0.9.3;                                  ! Version Identifier

OS:Material,
  {285ec4ee-9cb2-44d7-b78c-335d8757e1d5}, ! Handle
  Roof Insulation [2],                    ! Name
  MediumRough,                            ! Roughness
  0.221604,                               ! Thickness {m}
  0.049,                                  ! Conductivity {W/m-K}
  265,                                    ! Density {kg/m3}
  836.8,                                  ! Specific Heat {J/kg-K}
  0.9,                                    ! Thermal Absorptance
  0.7,                                    ! Solar Absorptance
  0.7;                                    ! Visible Absorptance

OS:ComponentCost:LineItem,
  {b0606854-0b4a-4f54-bd88-e8a769d51a26}, ! Handle
  90.1-2001 Nonres B17 Roof Attic and Other, ! Name
  ,                                       ! Type
  Construction,                           ! Line Item Type
  90.1-2001 Nonres B17 Roof Attic and Other, ! Item Name
  ,                                       ! Object End Use Key
  ,                                       ! Quantity {dimensionless}
  33.39,                                  ! Material Cost {$}
  CostPerArea;                            ! Material Cost Units

OS:Material,
  {882d1fd1-9fd4-4678-9ba5-e9ca37bd6f52}, ! Handle
  1IN Wood Decking,                       ! Name
  MediumSmooth,                           ! Roughness
  0.0254,                                 ! Thickness {m}
  0.1211,                                 ! Conductivity {W/m-K}
  593,                                    ! Density {kg/m3}
  2510,                                   ! Specific Heat {J/kg-K}
  0.9,                                    ! Thermal Absorptance
  0.78,                                   ! Solar Absorptance
  0.78;                                   ! Visible Absorptance

OS:Material,
  {f5896b1f-6000-4360-a9e8-52804301a365}, ! Handle
  1/2IN Gypsum,                           ! Name
  Smooth,                                 ! Roughness
  0.01271,                                ! Thickness {m}
  0.16,                                   ! Conductivity {W/m-K}
  784.9,                                  ! Density {kg/m3}
  830,                                    ! Specific Heat {J/kg-K}
  0.9,                                    ! Thermal Absorptance
  0.92,                                   ! Solar Absorptance
  0.92;                                   ! Visible Absorptance

OS:Material,
  {7b0c10d0-537a-4616-a5d4-aee90466e7cd}, ! Handle
  Wood Shingles,                          ! Name
  VeryRough,                              ! Roughness
  0.0178,                                 ! Thickness {m}
  0.115,                                  ! Conductivity {W/m-K}
  513,                                    ! Density {kg/m3}
  1255,                                   ! Specific Heat {J/kg-K}
  0.9,                                    ! Thermal Absorptance
  0.78,                                   ! Solar Absorptance
  0.78;                                   ! Visible Absorptance

OS:Construction,
  {60d92aec-7756-4b8d-ada7-430a787165fa}, ! Handle
  90.1-2001 Nonres B17 Roof Attic and Other, ! Name
  ,                                       ! Surface Rendering Name
  {7b0c10d0-537a-4616-a5d4-aee90466e7cd}, ! Layer 1
  {882d1fd1-9fd4-4678-9ba5-e9ca37bd6f52}, ! Layer 2
  {285ec4ee-9cb2-44d7-b78c-335d8757e1d5}, ! Layer 3
  {f5896b1f-6000-4360-a9e8-52804301a365}; ! Layer 4

