
OS:Version,
  {4ab0cf30-6f79-4fd5-9782-3c3c3f0660b8}, ! Handle
  0.9.3;                                  ! Version Identifier

OS:Construction,
  {0acfc944-13a0-4b3d-83a0-2f8aaa2fdb66}, ! Handle
  90.1-2001 Nonres B17 Roof Attic and Other, ! Name
  ,                                       ! Surface Rendering Name
  {eb88191c-7a58-4136-a987-2338b763d8a3}, ! Layer 1
  {71feb6c6-fef5-432b-83c4-95b9570f0395}, ! Layer 2
  {9e3d2d3d-82e8-432b-9111-b08906ebbf46}, ! Layer 3
  {9e8b0df0-5e19-4de9-8b23-a55ddffa2504}; ! Layer 4

OS:Material,
  {eb88191c-7a58-4136-a987-2338b763d8a3}, ! Handle
  Wood Shingles,                          ! Name
  VeryRough,                              ! Roughness
  0.0178,                                 ! Thickness {m}
  0.115,                                  ! Conductivity {W/m-K}
  513,                                    ! Density {kg/m3}
  1255,                                   ! Specific Heat {J/kg-K}
  0.9,                                    ! Thermal Absorptance
  0.78,                                   ! Solar Absorptance
  0.78;                                   ! Visible Absorptance

OS:Material,
  {71feb6c6-fef5-432b-83c4-95b9570f0395}, ! Handle
  1IN Wood Decking,                       ! Name
  MediumSmooth,                           ! Roughness
  0.0254,                                 ! Thickness {m}
  0.1211,                                 ! Conductivity {W/m-K}
  593,                                    ! Density {kg/m3}
  2510,                                   ! Specific Heat {J/kg-K}
  0.9,                                    ! Thermal Absorptance
  0.78,                                   ! Solar Absorptance
  0.78;                                   ! Visible Absorptance

OS:Material,
  {9e3d2d3d-82e8-432b-9111-b08906ebbf46}, ! Handle
  Roof Insulation [2],                    ! Name
  MediumRough,                            ! Roughness
  0.221604,                               ! Thickness {m}
  0.049,                                  ! Conductivity {W/m-K}
  265,                                    ! Density {kg/m3}
  836.8,                                  ! Specific Heat {J/kg-K}
  0.9,                                    ! Thermal Absorptance
  0.7,                                    ! Solar Absorptance
  0.7;                                    ! Visible Absorptance

OS:Material,
  {9e8b0df0-5e19-4de9-8b23-a55ddffa2504}, ! Handle
  1/2IN Gypsum,                           ! Name
  Smooth,                                 ! Roughness
  0.01271,                                ! Thickness {m}
  0.16,                                   ! Conductivity {W/m-K}
  784.9,                                  ! Density {kg/m3}
  830,                                    ! Specific Heat {J/kg-K}
  0.9,                                    ! Thermal Absorptance
  0.92,                                   ! Solar Absorptance
  0.92;                                   ! Visible Absorptance

OS:ComponentCost:LineItem,
  {89f6be7e-26f2-4a7d-80da-9602e9b09ea1}, ! Handle
  90.1-2001 Nonres B17 Roof Attic and Other, ! Name
  ,                                       ! Type
  Construction,                           ! Line Item Type
  90.1-2001 Nonres B17 Roof Attic and Other, ! Item Name
  ,                                       ! Object End Use Key
  ,                                       ! Quantity {dimensionless}
  33.39,                                  ! Material Cost {$}
  CostPerArea;                            ! Material Cost Units

OS:ComponentData,
  {d7ff4c71-6fae-4a66-a0d1-908a30da182e}, ! Handle
  Component Data 1,                       ! Name
  {1c71a9cf-3f24-4bfb-879b-d4000a2d56b4}, ! UUID
  {013bcf2d-9693-40f3-a06b-9dd6ae11cab8}, ! Version UUID
  1363981380,                             ! Creation Timestamp
  1363981380,                             ! Version Timestamp
  {0acfc944-13a0-4b3d-83a0-2f8aaa2fdb66}, ! Name of Object 1
  {eb88191c-7a58-4136-a987-2338b763d8a3}, ! Name of Object 2
  {71feb6c6-fef5-432b-83c4-95b9570f0395}, ! Name of Object 3
  {9e3d2d3d-82e8-432b-9111-b08906ebbf46}, ! Name of Object 4
  {9e8b0df0-5e19-4de9-8b23-a55ddffa2504}, ! Name of Object 5
  {89f6be7e-26f2-4a7d-80da-9602e9b09ea1}; ! Name of Object 6

