
OS:Version,
  {fa488ed2-3f24-41fe-aa93-4320fb132984}, ! Handle
  0.9.3;                                  ! Version Identifier

OS:Construction,
  {77aed9da-a050-4ba7-a0e7-2836eddadf8f}, ! Handle
  Title 24-2008 Nonres 10 Skylight Plastic Skylight with Curb, ! Name
  ,                                       ! Surface Rendering Name
  {00b7633b-e94f-4e77-b969-59fd908a0609}; ! Layer 1

OS:WindowMaterial:Glazing,
  {00b7633b-e94f-4e77-b969-59fd908a0609}, ! Handle
  Theoretical Glass [674],                ! Name
  SpectralAverage,                        ! Optical Data Type
  ,                                       ! Window Glass Spectral Data Set Name
  0.003,                                  ! Thickness {m}
  0.676633,                               ! Solar Transmittance at Normal Incidence
  0.273367,                               ! Front Side Solar Reflectance at Normal Incidence
  0.273367,                               ! Back Side Solar Reflectance at Normal Incidence
  0.689609,                               ! Visible Transmittance at Normal Incidence
  0.260391,                               ! Front Side Visible Reflectance at Normal Incidence
  0.260391,                               ! Back Side Visible Reflectance at Normal Incidence
  0,                                      ! Infrared Transmittance at Normal Incidence
  0.91,                                   ! Front Side Infrared Hemispherical Emissivity
  0.91,                                   ! Back Side Infrared Hemispherical Emissivity
  0.387053;                               ! Conductivity {W/m-K}

OS:ComponentCost:LineItem,
  {1a784882-d6ec-48d2-a73a-7601d63a5ffa}, ! Handle
  Title 24-2008 Nonres 10 Skylight Plastic Skylight with Curb, ! Name
  ,                                       ! Type
  Construction,                           ! Line Item Type
  Title 24-2008 Nonres 10 Skylight Plastic Skylight with Curb, ! Item Name
  ,                                       ! Object End Use Key
  ,                                       ! Quantity {dimensionless}
  480.601,                                ! Material Cost {$}
  CostPerArea;                            ! Material Cost Units

OS:ComponentData,
  {f42769c0-b329-4182-9d5f-d0e686049119}, ! Handle
  Component Data 1,                       ! Name
  {0cbd38a5-e199-410a-a9c4-1865c7d71606}, ! UUID
  {5129c645-b266-48ec-aa3a-f485e292fae6}, ! Version UUID
  1363982068,                             ! Creation Timestamp
  1363982068,                             ! Version Timestamp
  {77aed9da-a050-4ba7-a0e7-2836eddadf8f}, ! Name of Object 1
  {00b7633b-e94f-4e77-b969-59fd908a0609}, ! Name of Object 2
  {1a784882-d6ec-48d2-a73a-7601d63a5ffa}; ! Name of Object 3

