
OS:Version,
  {f8a3d482-ef56-4d34-907b-c32bcf059522}, ! Handle
  0.9.3;                                  ! Version Identifier

OS:ComponentCost:LineItem,
  {43bfcd13-2e89-441d-b35c-b7a87605471d}, ! Handle
  189.1-2009 Nonres 7A Window Nonmetal framing, ! Name
  ,                                       ! Type
  Construction,                           ! Line Item Type
  189.1-2009 Nonres 7A Window Nonmetal framing, ! Item Name
  ,                                       ! Object End Use Key
  ,                                       ! Quantity {dimensionless}
  508.362,                                ! Material Cost {$}
  CostPerArea;                            ! Material Cost Units

OS:Construction,
  {094410fe-7317-45e0-a2ad-dc290ec26916}, ! Handle
  189.1-2009 Nonres 7A Window Nonmetal framing, ! Name
  ,                                       ! Surface Rendering Name
  {e8fda04c-5ffa-4dc3-a3cd-b26f5e2e8149}; ! Layer 1

OS:WindowMaterial:Glazing,
  {e8fda04c-5ffa-4dc3-a3cd-b26f5e2e8149}, ! Handle
  Theoretical Glass [218],                ! Name
  SpectralAverage,                        ! Optical Data Type
  ,                                       ! Window Glass Spectral Data Set Name
  0.003,                                  ! Thickness {m}
  0.428104,                               ! Solar Transmittance at Normal Incidence
  0.521896,                               ! Front Side Solar Reflectance at Normal Incidence
  0.521896,                               ! Back Side Solar Reflectance at Normal Incidence
  0.450308,                               ! Visible Transmittance at Normal Incidence
  0.499692,                               ! Front Side Visible Reflectance at Normal Incidence
  0.499692,                               ! Back Side Visible Reflectance at Normal Incidence
  0,                                      ! Infrared Transmittance at Normal Incidence
  0.9,                                    ! Front Side Infrared Hemispherical Emissivity
  0.9,                                    ! Back Side Infrared Hemispherical Emissivity
  0.00560984;                             ! Conductivity {W/m-K}

