
OS:Version,
  {6cf0b8ff-9998-44dd-94e6-b4cf3d78b0b3}, ! Handle
  0.9.3;                                  ! Version Identifier

OS:Construction,
  {19955393-85ab-4974-92c2-b6f1581a8f2d}, ! Handle
  90.1-2001 Res B23 Window Fixed,         ! Name
  ,                                       ! Surface Rendering Name
  {bc23a6f7-395b-43bc-bcad-3b0a3a6d78f2}; ! Layer 1

OS:WindowMaterial:Glazing,
  {bc23a6f7-395b-43bc-bcad-3b0a3a6d78f2}, ! Handle
  Theoretical Glass [110],                ! Name
  SpectralAverage,                        ! Optical Data Type
  ,                                       ! Window Glass Spectral Data Set Name
  0.003,                                  ! Thickness {m}
  0.438713,                               ! Solar Transmittance at Normal Incidence
  0.511287,                               ! Front Side Solar Reflectance at Normal Incidence
  0.511287,                               ! Back Side Solar Reflectance at Normal Incidence
  0.460166,                               ! Visible Transmittance at Normal Incidence
  0.489834,                               ! Front Side Visible Reflectance at Normal Incidence
  0.489834,                               ! Back Side Visible Reflectance at Normal Incidence
  0,                                      ! Infrared Transmittance at Normal Incidence
  0.9,                                    ! Front Side Infrared Hemispherical Emissivity
  0.9,                                    ! Back Side Infrared Hemispherical Emissivity
  0.0089223;                              ! Conductivity {W/m-K}

OS:ComponentCost:LineItem,
  {5e2b70f8-f85d-4243-b740-40551be7b799}, ! Handle
  90.1-2001 Res B23 Window Fixed,         ! Name
  ,                                       ! Type
  Construction,                           ! Line Item Type
  90.1-2001 Res B23 Window Fixed,         ! Item Name
  ,                                       ! Object End Use Key
  ,                                       ! Quantity {dimensionless}
  600.037,                                ! Material Cost {$}
  CostPerArea;                            ! Material Cost Units

OS:ComponentData,
  {f751f0c6-6672-4d0d-96cf-8833ded90fdc}, ! Handle
  Component Data 1,                       ! Name
  {bde0c41d-4836-4f83-bb8e-2272280489f0}, ! UUID
  {8b20919f-7262-440d-b185-0d3c081d8dd2}, ! Version UUID
  1363981602,                             ! Creation Timestamp
  1363981602,                             ! Version Timestamp
  {19955393-85ab-4974-92c2-b6f1581a8f2d}, ! Name of Object 1
  {bc23a6f7-395b-43bc-bcad-3b0a3a6d78f2}, ! Name of Object 2
  {5e2b70f8-f85d-4243-b740-40551be7b799}; ! Name of Object 3

