
OS:Version,
  {5bd9f3ed-d240-4f69-b503-45222079a36f}, ! Handle
  0.9.3;                                  ! Version Identifier

OS:Material,
  {929883d9-f553-49ee-81e4-bd110332ee72}, ! Handle
  Roof Membrane,                          ! Name
  VeryRough,                              ! Roughness
  0.0095,                                 ! Thickness {m}
  0.16,                                   ! Conductivity {W/m-K}
  1121.29,                                ! Density {kg/m3}
  1460,                                   ! Specific Heat {J/kg-K}
  0.9,                                    ! Thermal Absorptance
  0.7,                                    ! Solar Absorptance
  0.7;                                    ! Visible Absorptance

OS:Construction,
  {e77bb3e7-8730-4725-86e5-2bfa24a2bfd5}, ! Handle
  90.1-1999 Nonres B1 Roof IEAD,          ! Name
  ,                                       ! Surface Rendering Name
  {929883d9-f553-49ee-81e4-bd110332ee72}, ! Layer 1
  {81c5e6fd-69db-4d21-889d-7f6300028c53}, ! Layer 2
  {3d2a9623-3c79-4992-a2a5-708ab8534a29}; ! Layer 3

OS:Material,
  {81c5e6fd-69db-4d21-889d-7f6300028c53}, ! Handle
  Roof Insulation,                        ! Name
  MediumRough,                            ! Roughness
  0.124958,                               ! Thickness {m}
  0.049,                                  ! Conductivity {W/m-K}
  265,                                    ! Density {kg/m3}
  836.8,                                  ! Specific Heat {J/kg-K}
  0.9,                                    ! Thermal Absorptance
  0.7,                                    ! Solar Absorptance
  0.7;                                    ! Visible Absorptance

OS:Material,
  {3d2a9623-3c79-4992-a2a5-708ab8534a29}, ! Handle
  Metal Decking,                          ! Name
  MediumSmooth,                           ! Roughness
  0.001524,                               ! Thickness {m}
  45.006,                                 ! Conductivity {W/m-K}
  7680,                                   ! Density {kg/m3}
  418.4,                                  ! Specific Heat {J/kg-K}
  0.9,                                    ! Thermal Absorptance
  0.7,                                    ! Solar Absorptance
  0.3;                                    ! Visible Absorptance

OS:ComponentCost:LineItem,
  {bbb20842-1d9a-45f0-bf78-e0d534d430f3}, ! Handle
  90.1-1999 Nonres B1 Roof IEAD,          ! Name
  ,                                       ! Type
  Construction,                           ! Line Item Type
  90.1-1999 Nonres B1 Roof IEAD,          ! Item Name
  ,                                       ! Object End Use Key
  ,                                       ! Quantity {dimensionless}
  49.208,                                 ! Material Cost {$}
  CostPerArea;                            ! Material Cost Units

