
OS:Version,
  {f2b1c04a-c4af-4d6e-a47f-9232d4268a67}, ! Handle
  0.9.3;                                  ! Version Identifier

OS:Material,
  {b74936f9-3f41-49d0-8d94-b179bb5cbb2b}, ! Handle
  1IN Wood Decking,                       ! Name
  MediumSmooth,                           ! Roughness
  0.0254,                                 ! Thickness {m}
  0.1211,                                 ! Conductivity {W/m-K}
  593,                                    ! Density {kg/m3}
  2510,                                   ! Specific Heat {J/kg-K}
  0.9,                                    ! Thermal Absorptance
  0.78,                                   ! Solar Absorptance
  0.78;                                   ! Visible Absorptance

OS:Construction,
  {854d1e94-a813-4abf-a9f8-1310f5f210c3}, ! Handle
  90.1-1999 Nonres B7 Roof Attic and Other, ! Name
  ,                                       ! Surface Rendering Name
  {1163c324-78a5-4dd5-bfb9-2650b44738d6}, ! Layer 1
  {b74936f9-3f41-49d0-8d94-b179bb5cbb2b}, ! Layer 2
  {caa669f7-5aee-4acc-bf4c-47e7e7c0b82f}, ! Layer 3
  {c9d19823-c69b-42e9-abf7-faff00158596}; ! Layer 4

OS:Material,
  {1163c324-78a5-4dd5-bfb9-2650b44738d6}, ! Handle
  Wood Shingles,                          ! Name
  VeryRough,                              ! Roughness
  0.0178,                                 ! Thickness {m}
  0.115,                                  ! Conductivity {W/m-K}
  513,                                    ! Density {kg/m3}
  1255,                                   ! Specific Heat {J/kg-K}
  0.9,                                    ! Thermal Absorptance
  0.78,                                   ! Solar Absorptance
  0.78;                                   ! Visible Absorptance

OS:Material,
  {caa669f7-5aee-4acc-bf4c-47e7e7c0b82f}, ! Handle
  Roof Insulation [2],                    ! Name
  MediumRough,                            ! Roughness
  0.221604,                               ! Thickness {m}
  0.049,                                  ! Conductivity {W/m-K}
  265,                                    ! Density {kg/m3}
  836.8,                                  ! Specific Heat {J/kg-K}
  0.9,                                    ! Thermal Absorptance
  0.7,                                    ! Solar Absorptance
  0.7;                                    ! Visible Absorptance

OS:Material,
  {c9d19823-c69b-42e9-abf7-faff00158596}, ! Handle
  1/2IN Gypsum,                           ! Name
  Smooth,                                 ! Roughness
  0.01271,                                ! Thickness {m}
  0.16,                                   ! Conductivity {W/m-K}
  784.9,                                  ! Density {kg/m3}
  830,                                    ! Specific Heat {J/kg-K}
  0.9,                                    ! Thermal Absorptance
  0.92,                                   ! Solar Absorptance
  0.92;                                   ! Visible Absorptance

OS:ComponentCost:LineItem,
  {3c227f41-9a42-4b14-afdc-921257663730}, ! Handle
  90.1-1999 Nonres B7 Roof Attic and Other, ! Name
  ,                                       ! Type
  Construction,                           ! Line Item Type
  90.1-1999 Nonres B7 Roof Attic and Other, ! Item Name
  ,                                       ! Object End Use Key
  ,                                       ! Quantity {dimensionless}
  33.39,                                  ! Material Cost {$}
  CostPerArea;                            ! Material Cost Units

