
OS:Version,
  {2700d1f9-0901-47a6-8c6e-0b353a5dc15a}, ! Handle
  0.9.3;                                  ! Version Identifier

OS:Construction,
  {62b757b4-ca16-4243-88f2-b049d858852e}, ! Handle
  90.1-2007 Nonres 8A Door Swinging,      ! Name
  ,                                       ! Surface Rendering Name
  {8bc2ebe0-a5f6-4f03-8827-3b6cbf9d9b6e}, ! Layer 1
  {a231c365-6637-4b71-b93b-43f2cfdc5e6b}, ! Layer 2
  {b856fbf2-c3a0-401c-867d-0e83bb234259}; ! Layer 3

OS:Material,
  {8bc2ebe0-a5f6-4f03-8827-3b6cbf9d9b6e}, ! Handle
  METAL Door Medium 18Ga_1,               ! Name
  Smooth,                                 ! Roughness
  0.0013106,                              ! Thickness {m}
  45.3149,                                ! Conductivity {W/m-K}
  7833.03,                                ! Density {kg/m3}
  502.08,                                 ! Specific Heat {J/kg-K}
  0.8,                                    ! Thermal Absorptance
  0.5,                                    ! Solar Absorptance
  0.5;                                    ! Visible Absorptance

OS:Material:NoMass,
  {a231c365-6637-4b71-b93b-43f2cfdc5e6b}, ! Handle
  AIR [2],                                ! Name
  Smooth,                                 ! Roughness
  0.352085,                               ! Thermal Resistance {m2-K/W}
  0.8,                                    ! Thermal Absorptance
  0.5,                                    ! Solar Absorptance
  0.5;                                    ! Visible Absorptance

OS:Material,
  {b856fbf2-c3a0-401c-867d-0e83bb234259}, ! Handle
  METAL Door Medium 18Ga_2,               ! Name
  Smooth,                                 ! Roughness
  0.0013106,                              ! Thickness {m}
  45.3149,                                ! Conductivity {W/m-K}
  7833.03,                                ! Density {kg/m3}
  502.08,                                 ! Specific Heat {J/kg-K}
  0.8,                                    ! Thermal Absorptance
  0.5,                                    ! Solar Absorptance
  0.5;                                    ! Visible Absorptance

OS:ComponentCost:LineItem,
  {cb3094b0-b71e-4290-a110-7b1ffd778c4a}, ! Handle
  90.1-2007 Nonres 8A Door Swinging,      ! Name
  ,                                       ! Type
  Construction,                           ! Line Item Type
  90.1-2007 Nonres 8A Door Swinging,      ! Item Name
  ,                                       ! Object End Use Key
  ,                                       ! Quantity {dimensionless}
  0,                                      ! Material Cost {$}
  CostPerArea;                            ! Material Cost Units

OS:ComponentData,
  {dd0a7dda-8666-49f1-9469-50b12f6b5231}, ! Handle
  Component Data 1,                       ! Name
  {24caa78b-4291-4119-9092-e982d1343dad}, ! UUID
  {f3c22ff1-0456-4cd9-ad7a-c11d63ca29d7}, ! Version UUID
  1363981828,                             ! Creation Timestamp
  1363981828,                             ! Version Timestamp
  {62b757b4-ca16-4243-88f2-b049d858852e}, ! Name of Object 1
  {8bc2ebe0-a5f6-4f03-8827-3b6cbf9d9b6e}, ! Name of Object 2
  {a231c365-6637-4b71-b93b-43f2cfdc5e6b}, ! Name of Object 3
  {b856fbf2-c3a0-401c-867d-0e83bb234259}, ! Name of Object 4
  {cb3094b0-b71e-4290-a110-7b1ffd778c4a}; ! Name of Object 5

