
OS:Version,
  {48964e82-fcd5-44ef-a601-47e243a247be}, ! Handle
  0.9.3;                                  ! Version Identifier

OS:Material,
  {64aaee39-651f-474f-be7e-7525b08310bd}, ! Handle
  AtticFloor Insulation [1],              ! Name
  MediumRough,                            ! Roughness
  0.303719,                               ! Thickness {m}
  0.049,                                  ! Conductivity {W/m-K}
  265,                                    ! Density {kg/m3}
  836.8,                                  ! Specific Heat {J/kg-K}
  0.9,                                    ! Thermal Absorptance
  0.7,                                    ! Solar Absorptance
  0.7;                                    ! Visible Absorptance

OS:Material,
  {485198c9-3857-44bd-bf83-4a1a6a4761db}, ! Handle
  1/2IN Gypsum Bottom,                    ! Name
  Smooth,                                 ! Roughness
  0.01271,                                ! Thickness {m}
  0.16,                                   ! Conductivity {W/m-K}
  784.9,                                  ! Density {kg/m3}
  830,                                    ! Specific Heat {J/kg-K}
  0.9,                                    ! Thermal Absorptance
  0.92,                                   ! Solar Absorptance
  0.92;                                   ! Visible Absorptance

OS:Material,
  {737854a2-6684-4dfb-bbb2-4a70e39ef059}, ! Handle
  1/2IN Gypsum Top,                       ! Name
  Smooth,                                 ! Roughness
  0.01271,                                ! Thickness {m}
  0.16,                                   ! Conductivity {W/m-K}
  784.9,                                  ! Density {kg/m3}
  830,                                    ! Specific Heat {J/kg-K}
  0.9,                                    ! Thermal Absorptance
  0.92,                                   ! Solar Absorptance
  0.92;                                   ! Visible Absorptance

OS:ComponentCost:LineItem,
  {33b7b50a-8d31-4a15-8caf-48a0798232aa}, ! Handle
  AEDG K12 Nonres 7A Attic Floor,         ! Name
  ,                                       ! Type
  Construction,                           ! Line Item Type
  AEDG K12 Nonres 7A Attic Floor,         ! Item Name
  ,                                       ! Object End Use Key
  ,                                       ! Quantity {dimensionless}
  35.009,                                 ! Material Cost {$}
  CostPerArea;                            ! Material Cost Units

OS:Construction,
  {ea7a98ef-3b18-421f-823e-9aa4f6677501}, ! Handle
  AEDG K12 Nonres 7A Attic Floor,         ! Name
  ,                                       ! Surface Rendering Name
  {737854a2-6684-4dfb-bbb2-4a70e39ef059}, ! Layer 1
  {64aaee39-651f-474f-be7e-7525b08310bd}, ! Layer 2
  {485198c9-3857-44bd-bf83-4a1a6a4761db}; ! Layer 3

