
OS:Version,
  {d38d75bc-3860-4676-a627-9d92acd17436}, ! Handle
  0.9.3;                                  ! Version Identifier

OS:Construction,
  {2d00ce94-1c7d-479f-84cc-0fa5a4dde44a}, ! Handle
  AEDG K12 Nonres 7A Attic Floor,         ! Name
  ,                                       ! Surface Rendering Name
  {57845519-ca32-48c3-a621-2adbadcce0c0}, ! Layer 1
  {317eccb5-b8b1-49bd-8712-9b3831539455}, ! Layer 2
  {3c68420a-fe44-4690-9841-8921f711b5f2}; ! Layer 3

OS:Material,
  {57845519-ca32-48c3-a621-2adbadcce0c0}, ! Handle
  1/2IN Gypsum Top,                       ! Name
  Smooth,                                 ! Roughness
  0.01271,                                ! Thickness {m}
  0.16,                                   ! Conductivity {W/m-K}
  784.9,                                  ! Density {kg/m3}
  830,                                    ! Specific Heat {J/kg-K}
  0.9,                                    ! Thermal Absorptance
  0.92,                                   ! Solar Absorptance
  0.92;                                   ! Visible Absorptance

OS:Material,
  {317eccb5-b8b1-49bd-8712-9b3831539455}, ! Handle
  AtticFloor Insulation [1],              ! Name
  MediumRough,                            ! Roughness
  0.303719,                               ! Thickness {m}
  0.049,                                  ! Conductivity {W/m-K}
  265,                                    ! Density {kg/m3}
  836.8,                                  ! Specific Heat {J/kg-K}
  0.9,                                    ! Thermal Absorptance
  0.7,                                    ! Solar Absorptance
  0.7;                                    ! Visible Absorptance

OS:Material,
  {3c68420a-fe44-4690-9841-8921f711b5f2}, ! Handle
  1/2IN Gypsum Bottom,                    ! Name
  Smooth,                                 ! Roughness
  0.01271,                                ! Thickness {m}
  0.16,                                   ! Conductivity {W/m-K}
  784.9,                                  ! Density {kg/m3}
  830,                                    ! Specific Heat {J/kg-K}
  0.9,                                    ! Thermal Absorptance
  0.92,                                   ! Solar Absorptance
  0.92;                                   ! Visible Absorptance

OS:ComponentCost:LineItem,
  {9cf5e201-6ce4-44a9-8f78-444744b97cf4}, ! Handle
  AEDG K12 Nonres 7A Attic Floor,         ! Name
  ,                                       ! Type
  Construction,                           ! Line Item Type
  AEDG K12 Nonres 7A Attic Floor,         ! Item Name
  ,                                       ! Object End Use Key
  ,                                       ! Quantity {dimensionless}
  35.009,                                 ! Material Cost {$}
  CostPerArea;                            ! Material Cost Units

OS:ComponentData,
  {d9120022-a440-45d8-b3a4-be9401a8af0b}, ! Handle
  Component Data 1,                       ! Name
  {5fb28ca9-491e-410d-8969-43d9f2136eb9}, ! UUID
  {39546882-ba6e-4bd9-ab16-186ba9163e2d}, ! Version UUID
  1363981902,                             ! Creation Timestamp
  1363981902,                             ! Version Timestamp
  {2d00ce94-1c7d-479f-84cc-0fa5a4dde44a}, ! Name of Object 1
  {57845519-ca32-48c3-a621-2adbadcce0c0}, ! Name of Object 2
  {317eccb5-b8b1-49bd-8712-9b3831539455}, ! Name of Object 3
  {3c68420a-fe44-4690-9841-8921f711b5f2}, ! Name of Object 4
  {9cf5e201-6ce4-44a9-8f78-444744b97cf4}; ! Name of Object 5

