
OS:Version,
  {bcc3ca9a-a6a0-47c2-827b-77ea0df6c3cf}, ! Handle
  0.9.3;                                  ! Version Identifier

OS:Construction,
  {8605260b-c005-41e1-9494-db8cbac22ab3}, ! Handle
  Title 24-2008 Nonres 7 Ext Wall Wood-Framed and Other, ! Name
  ,                                       ! Surface Rendering Name
  {207b01d8-f144-4c94-9de4-6c001f8493ec}, ! Layer 1
  {8dabcb2b-4173-4bf2-a2e2-becdec64c862}, ! Layer 2
  {61afd834-a0aa-45d3-becd-225f3ef3734c}; ! Layer 3

OS:Material,
  {207b01d8-f144-4c94-9de4-6c001f8493ec}, ! Handle
  Wood Siding,                            ! Name
  MediumSmooth,                           ! Roughness
  0.01,                                   ! Thickness {m}
  0.11,                                   ! Conductivity {W/m-K}
  544.62,                                 ! Density {kg/m3}
  1210,                                   ! Specific Heat {J/kg-K}
  0.9,                                    ! Thermal Absorptance
  0.78,                                   ! Solar Absorptance
  0.78;                                   ! Visible Absorptance

OS:Material,
  {8dabcb2b-4173-4bf2-a2e2-becdec64c862}, ! Handle
  Wall Insulation [159],                  ! Name
  MediumRough,                            ! Roughness
  0.0812,                                 ! Thickness {m}
  0.045,                                  ! Conductivity {W/m-K}
  265,                                    ! Density {kg/m3}
  836.8,                                  ! Specific Heat {J/kg-K}
  0.9,                                    ! Thermal Absorptance
  0.7,                                    ! Solar Absorptance
  0.7;                                    ! Visible Absorptance

OS:Material,
  {61afd834-a0aa-45d3-becd-225f3ef3734c}, ! Handle
  1/2IN Gypsum,                           ! Name
  Smooth,                                 ! Roughness
  0.01271,                                ! Thickness {m}
  0.16,                                   ! Conductivity {W/m-K}
  784.9,                                  ! Density {kg/m3}
  830,                                    ! Specific Heat {J/kg-K}
  0.9,                                    ! Thermal Absorptance
  0.92,                                   ! Solar Absorptance
  0.92;                                   ! Visible Absorptance

OS:ComponentCost:LineItem,
  {96edca00-ac91-4182-a349-49475469b2fd}, ! Handle
  Title 24-2008 Nonres 7 Ext Wall Wood-Framed and Other, ! Name
  ,                                       ! Type
  Construction,                           ! Line Item Type
  Title 24-2008 Nonres 7 Ext Wall Wood-Framed and Other, ! Item Name
  ,                                       ! Object End Use Key
  ,                                       ! Quantity {dimensionless}
  140.526,                                ! Material Cost {$}
  CostPerArea;                            ! Material Cost Units

OS:ComponentData,
  {211c0c83-3a76-4af9-8e5b-ec54f6c7825b}, ! Handle
  Component Data 1,                       ! Name
  {e433b196-7b85-4aa9-8970-0220ec4b6ac1}, ! UUID
  {589f5dea-84a0-418c-8a9a-ea3d63f7658d}, ! Version UUID
  1363982038,                             ! Creation Timestamp
  1363982038,                             ! Version Timestamp
  {8605260b-c005-41e1-9494-db8cbac22ab3}, ! Name of Object 1
  {207b01d8-f144-4c94-9de4-6c001f8493ec}, ! Name of Object 2
  {8dabcb2b-4173-4bf2-a2e2-becdec64c862}, ! Name of Object 3
  {61afd834-a0aa-45d3-becd-225f3ef3734c}, ! Name of Object 4
  {96edca00-ac91-4182-a349-49475469b2fd}; ! Name of Object 5

