
OS:Version,
  {1f2c4487-25b8-45cf-94eb-703881ca8970}, ! Handle
  0.9.3;                                  ! Version Identifier

OS:Material,
  {e916d28f-9e68-4c6b-adcc-5f68b0305b72}, ! Handle
  1/2IN Gypsum,                           ! Name
  Smooth,                                 ! Roughness
  0.01271,                                ! Thickness {m}
  0.16,                                   ! Conductivity {W/m-K}
  784.9,                                  ! Density {kg/m3}
  830,                                    ! Specific Heat {J/kg-K}
  0.9,                                    ! Thermal Absorptance
  0.92,                                   ! Solar Absorptance
  0.92;                                   ! Visible Absorptance

OS:Material,
  {d27d4c7d-3841-4840-af61-0b6410892ffd}, ! Handle
  8IN Concrete HW,                        ! Name
  MediumRough,                            ! Roughness
  0.2033,                                 ! Thickness {m}
  1.7296,                                 ! Conductivity {W/m-K}
  2243,                                   ! Density {kg/m3}
  837,                                    ! Specific Heat {J/kg-K}
  0.9,                                    ! Thermal Absorptance
  0.65,                                   ! Solar Absorptance
  0.65;                                   ! Visible Absorptance

OS:Construction,
  {463428ac-4979-48c3-adb5-d9bef4cefd75}, ! Handle
  90.1-2001 Nonres B1 Ext Wall Mass,      ! Name
  ,                                       ! Surface Rendering Name
  {fa915c3c-661c-4739-81bb-f53e2a5b6313}, ! Layer 1
  {d27d4c7d-3841-4840-af61-0b6410892ffd}, ! Layer 2
  {e916d28f-9e68-4c6b-adcc-5f68b0305b72}; ! Layer 3

OS:Material,
  {fa915c3c-661c-4739-81bb-f53e2a5b6313}, ! Handle
  1IN Stucco,                             ! Name
  Smooth,                                 ! Roughness
  0.0253,                                 ! Thickness {m}
  0.6918,                                 ! Conductivity {W/m-K}
  1858,                                   ! Density {kg/m3}
  837,                                    ! Specific Heat {J/kg-K}
  0.9,                                    ! Thermal Absorptance
  0.92,                                   ! Solar Absorptance
  0.92;                                   ! Visible Absorptance

OS:ComponentCost:LineItem,
  {df758243-dc62-48fd-8642-eb4cc97e4393}, ! Handle
  90.1-2001 Nonres B1 Ext Wall Mass,      ! Name
  ,                                       ! Type
  Construction,                           ! Line Item Type
  90.1-2001 Nonres B1 Ext Wall Mass,      ! Item Name
  ,                                       ! Object End Use Key
  ,                                       ! Quantity {dimensionless}
  41.397,                                 ! Material Cost {$}
  CostPerArea;                            ! Material Cost Units

