
OS:Version,
  {1fdd5561-76f0-40ee-a147-e0e872b76e0a}, ! Handle
  0.9.3;                                  ! Version Identifier

OS:Material,
  {cba5b39b-eeac-4d1c-bcce-c97815ab7aa5}, ! Handle
  MAT-CC05 8 HW CONCRETE,                 ! Name
  Rough,                                  ! Roughness
  0.20321,                                ! Thickness {m}
  1.311,                                  ! Conductivity {W/m-K}
  2240,                                   ! Density {kg/m3}
  836.8,                                  ! Specific Heat {J/kg-K}
  0.9,                                    ! Thermal Absorptance
  0.7,                                    ! Solar Absorptance
  0.7;                                    ! Visible Absorptance

OS:Construction,
  {79674d50-7849-4e6a-9f18-3ad2a0558d9b}, ! Handle
  90.1-2001 Res B19 Ext Slab Unheated - 8in Slab without Carpet, ! Name
  ,                                       ! Surface Rendering Name
  {cba5b39b-eeac-4d1c-bcce-c97815ab7aa5}; ! Layer 1

OS:ComponentCost:LineItem,
  {2930ea5c-e5ed-473c-acc7-096ea044cc21}, ! Handle
  90.1-2001 Res B19 Ext Slab Unheated - 8in Slab without Carpet, ! Name
  ,                                       ! Type
  Construction,                           ! Line Item Type
  90.1-2001 Res B19 Ext Slab Unheated - 8in Slab without Carpet, ! Item Name
  ,                                       ! Object End Use Key
  ,                                       ! Quantity {dimensionless}
  45.52,                                  ! Material Cost {$}
  CostPerArea;                            ! Material Cost Units

