
OS:Version,
  {7ac1c6aa-2747-419e-9be1-3e905660cfe9}, ! Handle
  0.9.3;                                  ! Version Identifier

OS:ComponentCost:LineItem,
  {1fb60f3f-4d35-4f68-a2d5-c070ec9c2659}, ! Handle
  90.1-1999 Res B3 Ext Wall Metal Building, ! Name
  ,                                       ! Type
  Construction,                           ! Line Item Type
  90.1-1999 Res B3 Ext Wall Metal Building, ! Item Name
  ,                                       ! Object End Use Key
  ,                                       ! Quantity {dimensionless}
  98.78,                                  ! Material Cost {$}
  CostPerArea;                            ! Material Cost Units

OS:Material,
  {9f555151-c40c-4251-9d5f-752f360b672b}, ! Handle
  Metal Siding,                           ! Name
  Smooth,                                 ! Roughness
  0.0015,                                 ! Thickness {m}
  44.96,                                  ! Conductivity {W/m-K}
  7688.86,                                ! Density {kg/m3}
  410,                                    ! Specific Heat {J/kg-K}
  0.9,                                    ! Thermal Absorptance
  0.2,                                    ! Solar Absorptance
  0.2;                                    ! Visible Absorptance

OS:Material,
  {efaf9dff-4d99-4612-8ec8-b1da9e1a1b56}, ! Handle
  1/2IN Gypsum,                           ! Name
  Smooth,                                 ! Roughness
  0.01271,                                ! Thickness {m}
  0.16,                                   ! Conductivity {W/m-K}
  784.9,                                  ! Density {kg/m3}
  830,                                    ! Specific Heat {J/kg-K}
  0.9,                                    ! Thermal Absorptance
  0.92,                                   ! Solar Absorptance
  0.92;                                   ! Visible Absorptance

OS:Material,
  {25ee5238-5124-4f70-8378-e1b6e28b8b00}, ! Handle
  Wall Insulation,                        ! Name
  MediumRough,                            ! Roughness
  0.0598725,                              ! Thickness {m}
  0.045,                                  ! Conductivity {W/m-K}
  265,                                    ! Density {kg/m3}
  836.8,                                  ! Specific Heat {J/kg-K}
  0.9,                                    ! Thermal Absorptance
  0.7,                                    ! Solar Absorptance
  0.7;                                    ! Visible Absorptance

OS:Construction,
  {64ea64fa-27c1-49e4-975b-f235de80e125}, ! Handle
  90.1-1999 Res B3 Ext Wall Metal Building, ! Name
  ,                                       ! Surface Rendering Name
  {9f555151-c40c-4251-9d5f-752f360b672b}, ! Layer 1
  {25ee5238-5124-4f70-8378-e1b6e28b8b00}, ! Layer 2
  {efaf9dff-4d99-4612-8ec8-b1da9e1a1b56}; ! Layer 3

