
OS:Version,
  {00ffee16-d5dc-4b28-89a7-16341b2d0296}, ! Handle
  0.9.3;                                  ! Version Identifier

OS:Construction,
  {e94d6451-39f0-4db5-b0da-581d4e1fd9bc}, ! Handle
  90.1-2001 Nonres B3 Window Fixed,       ! Name
  ,                                       ! Surface Rendering Name
  {8e73018d-d1cc-4638-a0a1-6b1c4a1f1c00}; ! Layer 1

OS:WindowMaterial:Glazing,
  {8e73018d-d1cc-4638-a0a1-6b1c4a1f1c00}, ! Handle
  Theoretical Glass [10],                 ! Name
  SpectralAverage,                        ! Optical Data Type
  ,                                       ! Window Glass Spectral Data Set Name
  0.003,                                  ! Thickness {m}
  0.455799,                               ! Solar Transmittance at Normal Incidence
  0.494201,                               ! Front Side Solar Reflectance at Normal Incidence
  0.494201,                               ! Back Side Solar Reflectance at Normal Incidence
  0.505402,                               ! Visible Transmittance at Normal Incidence
  0.444598,                               ! Front Side Visible Reflectance at Normal Incidence
  0.444598,                               ! Back Side Visible Reflectance at Normal Incidence
  0,                                      ! Infrared Transmittance at Normal Incidence
  0.999,                                  ! Front Side Infrared Hemispherical Emissivity
  0.999,                                  ! Back Side Infrared Hemispherical Emissivity
  3.36874;                                ! Conductivity {W/m-K}

OS:ComponentCost:LineItem,
  {0fec21e5-01de-4522-8e47-480c2348522d}, ! Handle
  90.1-2001 Nonres B3 Window Fixed,       ! Name
  ,                                       ! Type
  Construction,                           ! Line Item Type
  90.1-2001 Nonres B3 Window Fixed,       ! Item Name
  ,                                       ! Object End Use Key
  ,                                       ! Quantity {dimensionless}
  455.638,                                ! Material Cost {$}
  CostPerArea;                            ! Material Cost Units

OS:ComponentData,
  {5281b5e4-63fb-41dd-92b9-2ad37b64dfa4}, ! Handle
  Component Data 1,                       ! Name
  {8b1f5891-7059-4472-9bae-0aef815d204b}, ! UUID
  {a4909c13-29f2-4203-8db4-b0bfa6a65aa7}, ! Version UUID
  1363981304,                             ! Creation Timestamp
  1363981304,                             ! Version Timestamp
  {e94d6451-39f0-4db5-b0da-581d4e1fd9bc}, ! Name of Object 1
  {8e73018d-d1cc-4638-a0a1-6b1c4a1f1c00}, ! Name of Object 2
  {0fec21e5-01de-4522-8e47-480c2348522d}; ! Name of Object 3

