
OS:Version,
  {6b78b8a0-4df9-4e23-9e86-87492d87a8b1}, ! Handle
  0.9.3;                                  ! Version Identifier

OS:WindowMaterial:Glazing,
  {2ca52a40-fbd5-4ecb-8413-bb86d1454719}, ! Handle
  Theoretical Glass [10],                 ! Name
  SpectralAverage,                        ! Optical Data Type
  ,                                       ! Window Glass Spectral Data Set Name
  0.003,                                  ! Thickness {m}
  0.455799,                               ! Solar Transmittance at Normal Incidence
  0.494201,                               ! Front Side Solar Reflectance at Normal Incidence
  0.494201,                               ! Back Side Solar Reflectance at Normal Incidence
  0.505402,                               ! Visible Transmittance at Normal Incidence
  0.444598,                               ! Front Side Visible Reflectance at Normal Incidence
  0.444598,                               ! Back Side Visible Reflectance at Normal Incidence
  0,                                      ! Infrared Transmittance at Normal Incidence
  0.999,                                  ! Front Side Infrared Hemispherical Emissivity
  0.999,                                  ! Back Side Infrared Hemispherical Emissivity
  3.36874;                                ! Conductivity {W/m-K}

OS:Construction,
  {ab3ff68c-43fe-4517-87f1-8c6a565e0def}, ! Handle
  90.1-2001 Nonres B3 Window Fixed,       ! Name
  ,                                       ! Surface Rendering Name
  {2ca52a40-fbd5-4ecb-8413-bb86d1454719}; ! Layer 1

OS:ComponentCost:LineItem,
  {8eb1e6e1-e3b1-4736-9fdc-cbcd1eef0405}, ! Handle
  90.1-2001 Nonres B3 Window Fixed,       ! Name
  ,                                       ! Type
  Construction,                           ! Line Item Type
  90.1-2001 Nonres B3 Window Fixed,       ! Item Name
  ,                                       ! Object End Use Key
  ,                                       ! Quantity {dimensionless}
  455.638,                                ! Material Cost {$}
  CostPerArea;                            ! Material Cost Units

