
OS:Version,
  {34f6468c-125f-4b5e-b89b-1cfa23f517c7}, ! Handle
  0.9.3;                                  ! Version Identifier

OS:Construction,
  {47c73881-853f-427c-8df1-1748a828cc8d}, ! Handle
  90.1-1999 Res B16 Skylight without Curb, ! Name
  ,                                       ! Surface Rendering Name
  {f04cfa42-fe39-4fbe-94b2-b9a0e6be792a}; ! Layer 1

OS:WindowMaterial:Glazing,
  {f04cfa42-fe39-4fbe-94b2-b9a0e6be792a}, ! Handle
  Theoretical Glass [97],                 ! Name
  SpectralAverage,                        ! Optical Data Type
  ,                                       ! Window Glass Spectral Data Set Name
  0.003,                                  ! Thickness {m}
  0.442595,                               ! Solar Transmittance at Normal Incidence
  0.507405,                               ! Front Side Solar Reflectance at Normal Incidence
  0.507405,                               ! Back Side Solar Reflectance at Normal Incidence
  0.460166,                               ! Visible Transmittance at Normal Incidence
  0.489834,                               ! Front Side Visible Reflectance at Normal Incidence
  0.489834,                               ! Back Side Visible Reflectance at Normal Incidence
  0,                                      ! Infrared Transmittance at Normal Incidence
  0.9,                                    ! Front Side Infrared Hemispherical Emissivity
  0.9,                                    ! Back Side Infrared Hemispherical Emissivity
  0.0324872;                              ! Conductivity {W/m-K}

OS:ComponentCost:LineItem,
  {4342d9ab-4897-4a72-9b53-c20896668629}, ! Handle
  90.1-1999 Res B16 Skylight without Curb, ! Name
  ,                                       ! Type
  Construction,                           ! Line Item Type
  90.1-1999 Res B16 Skylight without Curb, ! Item Name
  ,                                       ! Object End Use Key
  ,                                       ! Quantity {dimensionless}
  508.362,                                ! Material Cost {$}
  CostPerArea;                            ! Material Cost Units

