
OS:Version,
  {87c21f4b-ec09-4f10-adef-c1ea7b118f33}, ! Handle
  0.9.3;                                  ! Version Identifier

OS:Material,
  {bb714fb2-39f5-412f-b959-cde0a97ffadb}, ! Handle
  Roof Insulation [21],                   ! Name
  MediumRough,                            ! Roughness
  0.210538,                               ! Thickness {m}
  0.049,                                  ! Conductivity {W/m-K}
  265,                                    ! Density {kg/m3}
  836.8,                                  ! Specific Heat {J/kg-K}
  0.9,                                    ! Thermal Absorptance
  0.7,                                    ! Solar Absorptance
  0.7;                                    ! Visible Absorptance

OS:Material,
  {064959fc-d2fd-4980-8580-838a6807de69}, ! Handle
  Roof Membrane,                          ! Name
  VeryRough,                              ! Roughness
  0.0095,                                 ! Thickness {m}
  0.16,                                   ! Conductivity {W/m-K}
  1121.29,                                ! Density {kg/m3}
  1460,                                   ! Specific Heat {J/kg-K}
  0.9,                                    ! Thermal Absorptance
  0.7,                                    ! Solar Absorptance
  0.7;                                    ! Visible Absorptance

OS:Construction,
  {881fff1b-9771-4bad-965f-0dd96d4b5b86}, ! Handle
  189.1-2009 Res 3A Roof IEAD,            ! Name
  ,                                       ! Surface Rendering Name
  {064959fc-d2fd-4980-8580-838a6807de69}, ! Layer 1
  {bb714fb2-39f5-412f-b959-cde0a97ffadb}, ! Layer 2
  {602630e6-78eb-438d-bf0c-0329e9932464}; ! Layer 3

OS:Material,
  {602630e6-78eb-438d-bf0c-0329e9932464}, ! Handle
  Metal Decking,                          ! Name
  MediumSmooth,                           ! Roughness
  0.001524,                               ! Thickness {m}
  45.006,                                 ! Conductivity {W/m-K}
  7680,                                   ! Density {kg/m3}
  418.4,                                  ! Specific Heat {J/kg-K}
  0.9,                                    ! Thermal Absorptance
  0.7,                                    ! Solar Absorptance
  0.3;                                    ! Visible Absorptance

OS:ComponentCost:LineItem,
  {37b4ed37-a875-4b69-a00a-bf11d735195e}, ! Handle
  189.1-2009 Res 3A Roof IEAD,            ! Name
  ,                                       ! Type
  Construction,                           ! Line Item Type
  189.1-2009 Res 3A Roof IEAD,            ! Item Name
  ,                                       ! Object End Use Key
  ,                                       ! Quantity {dimensionless}
  56.652,                                 ! Material Cost {$}
  CostPerArea;                            ! Material Cost Units

