
OS:Version,
  {922d0ff5-89a5-4f70-a42b-8595d65393fb}, ! Handle
  0.9.3;                                  ! Version Identifier

OS:Construction,
  {f1bb2c88-ee47-4125-8272-6a1e65624ea7}, ! Handle
  Title 24-2008 Nonres 2 Skylight Plastic Skylight with Curb, ! Name
  ,                                       ! Surface Rendering Name
  {c5df1743-51fc-44da-a488-01bfadcee665}; ! Layer 1

OS:WindowMaterial:Glazing,
  {c5df1743-51fc-44da-a488-01bfadcee665}, ! Handle
  Theoretical Glass [674],                ! Name
  SpectralAverage,                        ! Optical Data Type
  ,                                       ! Window Glass Spectral Data Set Name
  0.003,                                  ! Thickness {m}
  0.676633,                               ! Solar Transmittance at Normal Incidence
  0.273367,                               ! Front Side Solar Reflectance at Normal Incidence
  0.273367,                               ! Back Side Solar Reflectance at Normal Incidence
  0.689609,                               ! Visible Transmittance at Normal Incidence
  0.260391,                               ! Front Side Visible Reflectance at Normal Incidence
  0.260391,                               ! Back Side Visible Reflectance at Normal Incidence
  0,                                      ! Infrared Transmittance at Normal Incidence
  0.91,                                   ! Front Side Infrared Hemispherical Emissivity
  0.91,                                   ! Back Side Infrared Hemispherical Emissivity
  0.387053;                               ! Conductivity {W/m-K}

OS:ComponentCost:LineItem,
  {b16d50d5-566c-4245-9f1e-c53feedb498a}, ! Handle
  Title 24-2008 Nonres 2 Skylight Plastic Skylight with Curb, ! Name
  ,                                       ! Type
  Construction,                           ! Line Item Type
  Title 24-2008 Nonres 2 Skylight Plastic Skylight with Curb, ! Item Name
  ,                                       ! Object End Use Key
  ,                                       ! Quantity {dimensionless}
  480.601,                                ! Material Cost {$}
  CostPerArea;                            ! Material Cost Units

