
OS:Version,
  {de0b6b53-8838-42f0-9722-b7358693e491}, ! Handle
  0.9.3;                                  ! Version Identifier

OS:Construction,
  {15e64e2d-8284-4af3-803e-f6f5bd043da3}, ! Handle
  90.1-1999 Res B24 Roof Metal Building,  ! Name
  ,                                       ! Surface Rendering Name
  {685f4e5c-f9fb-4253-85ec-01a4fd4fe283}, ! Layer 1
  {5476cd0d-7dff-4785-8166-77eb9124d2ea}; ! Layer 2

OS:Material,
  {685f4e5c-f9fb-4253-85ec-01a4fd4fe283}, ! Handle
  Metal Roofing,                          ! Name
  MediumSmooth,                           ! Roughness
  0.001524,                               ! Thickness {m}
  45.006,                                 ! Conductivity {W/m-K}
  7680,                                   ! Density {kg/m3}
  418.4,                                  ! Specific Heat {J/kg-K}
  0.9,                                    ! Thermal Absorptance
  0.7,                                    ! Solar Absorptance
  0.3;                                    ! Visible Absorptance

OS:Material,
  {5476cd0d-7dff-4785-8166-77eb9124d2ea}, ! Handle
  Roof Insulation [8],                    ! Name
  MediumRough,                            ! Roughness
  0.166908,                               ! Thickness {m}
  0.049,                                  ! Conductivity {W/m-K}
  265,                                    ! Density {kg/m3}
  836.8,                                  ! Specific Heat {J/kg-K}
  0.9,                                    ! Thermal Absorptance
  0.7,                                    ! Solar Absorptance
  0.7;                                    ! Visible Absorptance

OS:ComponentCost:LineItem,
  {fb2146b1-791b-432f-995e-459447a23f6c}, ! Handle
  90.1-1999 Res B24 Roof Metal Building,  ! Name
  ,                                       ! Type
  Construction,                           ! Line Item Type
  90.1-1999 Res B24 Roof Metal Building,  ! Item Name
  ,                                       ! Object End Use Key
  ,                                       ! Quantity {dimensionless}
  42.184,                                 ! Material Cost {$}
  CostPerArea;                            ! Material Cost Units

OS:ComponentData,
  {64ba863a-92a9-4090-b3f7-552e1a0b5057}, ! Handle
  Component Data 1,                       ! Name
  {7b311bcd-0b0a-47e8-94cd-0674a6d63fcf}, ! UUID
  {3b70c26e-2a58-40df-8b57-ddb202437f94}, ! Version UUID
  1363981269,                             ! Creation Timestamp
  1363981269,                             ! Version Timestamp
  {15e64e2d-8284-4af3-803e-f6f5bd043da3}, ! Name of Object 1
  {685f4e5c-f9fb-4253-85ec-01a4fd4fe283}, ! Name of Object 2
  {5476cd0d-7dff-4785-8166-77eb9124d2ea}, ! Name of Object 3
  {fb2146b1-791b-432f-995e-459447a23f6c}; ! Name of Object 4

