
OS:Version,
  {9c3c94fb-33ea-4456-aa8d-b2a1e2b057b3}, ! Handle
  0.9.3;                                  ! Version Identifier

OS:ComponentCost:LineItem,
  {8d3812a9-2c7f-4716-a061-eaa93c3c4340}, ! Handle
  Title 24-2008 Nonres 10 Ext Wall Steel-Framed, ! Name
  ,                                       ! Type
  Construction,                           ! Line Item Type
  Title 24-2008 Nonres 10 Ext Wall Steel-Framed, ! Item Name
  ,                                       ! Object End Use Key
  ,                                       ! Quantity {dimensionless}
  155.805,                                ! Material Cost {$}
  CostPerArea;                            ! Material Cost Units

OS:Material:NoMass,
  {146985a1-2058-4803-82ac-142f732bb8f9}, ! Handle
  MAT-SHEATH,                             ! Name
  Rough,                                  ! Roughness
  0.36256,                                ! Thermal Resistance {m2-K/W}
  0.9,                                    ! Thermal Absorptance
  0.7,                                    ! Solar Absorptance
  0.7;                                    ! Visible Absorptance

OS:Material,
  {8608288e-5065-4bfb-b19c-6bb0f556dd54}, ! Handle
  Wall Insulation [159],                  ! Name
  MediumRough,                            ! Roughness
  0.0812,                                 ! Thickness {m}
  0.045,                                  ! Conductivity {W/m-K}
  265,                                    ! Density {kg/m3}
  836.8,                                  ! Specific Heat {J/kg-K}
  0.9,                                    ! Thermal Absorptance
  0.7,                                    ! Solar Absorptance
  0.7;                                    ! Visible Absorptance

OS:Material,
  {ad77553a-7cce-4587-84e4-c214aabe0b36}, ! Handle
  1/2IN Gypsum,                           ! Name
  Smooth,                                 ! Roughness
  0.01271,                                ! Thickness {m}
  0.16,                                   ! Conductivity {W/m-K}
  784.9,                                  ! Density {kg/m3}
  830,                                    ! Specific Heat {J/kg-K}
  0.9,                                    ! Thermal Absorptance
  0.92,                                   ! Solar Absorptance
  0.92;                                   ! Visible Absorptance

OS:Construction,
  {9c1975d6-5b20-4ac8-b8df-0cc7d1a2fd17}, ! Handle
  Title 24-2008 Nonres 10 Ext Wall Steel-Framed, ! Name
  ,                                       ! Surface Rendering Name
  {146985a1-2058-4803-82ac-142f732bb8f9}, ! Layer 1
  {8608288e-5065-4bfb-b19c-6bb0f556dd54}, ! Layer 2
  {ad77553a-7cce-4587-84e4-c214aabe0b36}; ! Layer 3

