
! 
OS:Version,
  {9c37d538-db0d-4a47-9850-5bede7e76bd5}, !- Handle
  1.13.0;                                 !- Version Identifier


! {"nombreProductoCorto": "STADIP 88.2 con COOL-LITE ST150", "codigoEAN": "", "handle": "5a368cd0-9e6f-42bb-8962-acc2a3933b42", "g": 0.52, "tV": 0.52, "u": 5.3, "nombreProducto": "STADIP 88.2 con COOL-LITE ST150\nU:5.3 W/m2K - g:0.52 - Tv: 0.52"}
OS:WindowMaterial:SimpleGlazingSystem,
  {5a368cd0-9e6f-42bb-8962-acc2a3933b42}, !- Handle
  STADIP 88.2 con COOL-LITE ST150, !- Name
  5.3,                                    !- U-Factor {W/m2-K}
  0.52,                                    !- Solar Heat Gain Coefficient
  0.52;                                    !- Visible Transmittance     
  
  
OS:Construction,
  {d0c29ad3-c3c1-408f-9ecf-91410af0fb14}, !- Handle
  STADIP 88.2 con COOL-LITE ST150,                         !- Name
  ,                                       !- Surface Rendering Name
  {5a368cd0-9e6f-42bb-8962-acc2a3933b42}; !- Layer 1  

