
OS:Version,
  {57ed12e2-8291-4f9a-a6fe-f7a90435c8f3}, ! Handle
  0.9.3;                                  ! Version Identifier

OS:Material,
  {0816d982-b58f-45a3-9a23-baed2fb8ba28}, ! Handle
  1/2IN Gypsum,                           ! Name
  Smooth,                                 ! Roughness
  0.01271,                                ! Thickness {m}
  0.16,                                   ! Conductivity {W/m-K}
  784.9,                                  ! Density {kg/m3}
  830,                                    ! Specific Heat {J/kg-K}
  0.9,                                    ! Thermal Absorptance
  0.92,                                   ! Solar Absorptance
  0.92;                                   ! Visible Absorptance

OS:Construction,
  {fdb3f1d9-54f8-4c0e-a32a-e041afd1ff4c}, ! Handle
  90.1-1999 Res B16 Ext Wall Mass,        ! Name
  ,                                       ! Surface Rendering Name
  {995442d4-467b-4b35-9ca2-118377701590}, ! Layer 1
  {8aa6b4eb-8001-417d-8ab4-80cc140ab303}, ! Layer 2
  {05cd9f82-a2e9-48d4-a2a7-7166ac94eeac}, ! Layer 3
  {0816d982-b58f-45a3-9a23-baed2fb8ba28}; ! Layer 4

OS:Material,
  {995442d4-467b-4b35-9ca2-118377701590}, ! Handle
  1IN Stucco,                             ! Name
  Smooth,                                 ! Roughness
  0.0253,                                 ! Thickness {m}
  0.6918,                                 ! Conductivity {W/m-K}
  1858,                                   ! Density {kg/m3}
  837,                                    ! Specific Heat {J/kg-K}
  0.9,                                    ! Thermal Absorptance
  0.92,                                   ! Solar Absorptance
  0.92;                                   ! Visible Absorptance

OS:Material,
  {8aa6b4eb-8001-417d-8ab4-80cc140ab303}, ! Handle
  8IN Concrete HW,                        ! Name
  MediumRough,                            ! Roughness
  0.2033,                                 ! Thickness {m}
  1.7296,                                 ! Conductivity {W/m-K}
  2243,                                   ! Density {kg/m3}
  837,                                    ! Specific Heat {J/kg-K}
  0.9,                                    ! Thermal Absorptance
  0.65,                                   ! Solar Absorptance
  0.65;                                   ! Visible Absorptance

OS:Material,
  {05cd9f82-a2e9-48d4-a2a7-7166ac94eeac}, ! Handle
  Wall Insulation [5],                    ! Name
  MediumRough,                            ! Roughness
  0.0453274,                              ! Thickness {m}
  0.0432,                                 ! Conductivity {W/m-K}
  91,                                     ! Density {kg/m3}
  837,                                    ! Specific Heat {J/kg-K}
  0.9,                                    ! Thermal Absorptance
  0.5,                                    ! Solar Absorptance
  0.5;                                    ! Visible Absorptance

OS:ComponentCost:LineItem,
  {c308b623-fd97-4ceb-baf3-960e5a476c33}, ! Handle
  90.1-1999 Res B16 Ext Wall Mass,        ! Name
  ,                                       ! Type
  Construction,                           ! Line Item Type
  90.1-1999 Res B16 Ext Wall Mass,        ! Item Name
  ,                                       ! Object End Use Key
  ,                                       ! Quantity {dimensionless}
  61.418,                                 ! Material Cost {$}
  CostPerArea;                            ! Material Cost Units

