
OS:Version,
  {832265f7-d2a9-4a9c-9694-b8c6d0eed2f8}, ! Handle
  0.9.3;                                  ! Version Identifier

OS:Construction,
  {2d5523bf-2044-4c0e-8b2d-dea8c0823eb6}, ! Handle
  AEDG K12 Nonres 3C Exposed Floor Mass,  ! Name
  ,                                       ! Surface Rendering Name
  {36fe3247-8e47-4cf7-bb11-c52bba6ab477}, ! Layer 1
  {f50e3660-4764-43af-b4ad-f10cbe58e8f0}, ! Layer 2
  {14585159-8230-4dcb-bb82-4738e68421bc}; ! Layer 3

OS:Material,
  {36fe3247-8e47-4cf7-bb11-c52bba6ab477}, ! Handle
  Floor Insulation [1],                   ! Name
  MediumRough,                            ! Roughness
  0.0463846,                              ! Thickness {m}
  0.045,                                  ! Conductivity {W/m-K}
  265,                                    ! Density {kg/m3}
  836.8,                                  ! Specific Heat {J/kg-K}
  0.9,                                    ! Thermal Absorptance
  0.7,                                    ! Solar Absorptance
  0.7;                                    ! Visible Absorptance

OS:Material,
  {f50e3660-4764-43af-b4ad-f10cbe58e8f0}, ! Handle
  MAT-CC05 8 HW CONCRETE,                 ! Name
  Rough,                                  ! Roughness
  0.20321,                                ! Thickness {m}
  1.311,                                  ! Conductivity {W/m-K}
  2240,                                   ! Density {kg/m3}
  836.8,                                  ! Specific Heat {J/kg-K}
  0.9,                                    ! Thermal Absorptance
  0.7,                                    ! Solar Absorptance
  0.7;                                    ! Visible Absorptance

OS:Material:NoMass,
  {14585159-8230-4dcb-bb82-4738e68421bc}, ! Handle
  CP02 CARPET PAD EF,                     ! Name
  VeryRough,                              ! Roughness
  0.21648,                                ! Thermal Resistance {m2-K/W}
  0.9,                                    ! Thermal Absorptance
  0.7,                                    ! Solar Absorptance
  0.8;                                    ! Visible Absorptance

OS:ComponentCost:LineItem,
  {515cad9b-ad7c-4c49-acf7-9fbd6026ec14}, ! Handle
  AEDG K12 Nonres 3C Exposed Floor Mass,  ! Name
  ,                                       ! Type
  Construction,                           ! Line Item Type
  AEDG K12 Nonres 3C Exposed Floor Mass,  ! Item Name
  ,                                       ! Object End Use Key
  ,                                       ! Quantity {dimensionless}
  47.214,                                 ! Material Cost {$}
  CostPerArea;                            ! Material Cost Units

