
OS:Version,
  {28f078c1-ec4e-4fd6-92e4-84ab9d42aa25}, ! Handle
  0.9.3;                                  ! Version Identifier

OS:Construction,
  {cdd1c442-f0a3-42b3-b532-7df1bedea76c}, ! Handle
  90.1-2004 Nonres 5B Exposed Floor Mass, ! Name
  ,                                       ! Surface Rendering Name
  {d27354a6-012a-41d3-91fb-c577ebf77126}, ! Layer 1
  {359de019-5866-45bd-ab26-eb838ec4c4e0}, ! Layer 2
  {008554e4-27a8-4061-875a-2fe5b379a900}; ! Layer 3

OS:Material,
  {d27354a6-012a-41d3-91fb-c577ebf77126}, ! Handle
  Floor Insulation [2],                   ! Name
  MediumRough,                            ! Roughness
  0.0635689,                              ! Thickness {m}
  0.045,                                  ! Conductivity {W/m-K}
  265,                                    ! Density {kg/m3}
  836.8,                                  ! Specific Heat {J/kg-K}
  0.9,                                    ! Thermal Absorptance
  0.7,                                    ! Solar Absorptance
  0.7;                                    ! Visible Absorptance

OS:Material,
  {359de019-5866-45bd-ab26-eb838ec4c4e0}, ! Handle
  MAT-CC05 8 HW CONCRETE,                 ! Name
  Rough,                                  ! Roughness
  0.20321,                                ! Thickness {m}
  1.311,                                  ! Conductivity {W/m-K}
  2240,                                   ! Density {kg/m3}
  836.8,                                  ! Specific Heat {J/kg-K}
  0.9,                                    ! Thermal Absorptance
  0.7,                                    ! Solar Absorptance
  0.7;                                    ! Visible Absorptance

OS:Material:NoMass,
  {008554e4-27a8-4061-875a-2fe5b379a900}, ! Handle
  CP02 CARPET PAD,                        ! Name
  VeryRough,                              ! Roughness
  0.21648,                                ! Thermal Resistance {m2-K/W}
  0.9,                                    ! Thermal Absorptance
  0.7,                                    ! Solar Absorptance
  0.8;                                    ! Visible Absorptance

OS:ComponentCost:LineItem,
  {f10c7023-8cc6-49f8-bfe6-08d2b17c3ecd}, ! Handle
  90.1-2004 Nonres 5B Exposed Floor Mass, ! Name
  ,                                       ! Type
  Construction,                           ! Line Item Type
  90.1-2004 Nonres 5B Exposed Floor Mass, ! Item Name
  ,                                       ! Object End Use Key
  ,                                       ! Quantity {dimensionless}
  49.612,                                 ! Material Cost {$}
  CostPerArea;                            ! Material Cost Units

OS:ComponentData,
  {15c6aab1-6b62-46a3-b063-f4ef58402713}, ! Handle
  Component Data 1,                       ! Name
  {41bb332f-6b21-4a2e-9e43-8cae881e4cca}, ! UUID
  {774564e4-9cc4-4371-b2aa-c51fec3c9c9f}, ! Version UUID
  1363981680,                             ! Creation Timestamp
  1363981680,                             ! Version Timestamp
  {cdd1c442-f0a3-42b3-b532-7df1bedea76c}, ! Name of Object 1
  {d27354a6-012a-41d3-91fb-c577ebf77126}, ! Name of Object 2
  {359de019-5866-45bd-ab26-eb838ec4c4e0}, ! Name of Object 3
  {008554e4-27a8-4061-875a-2fe5b379a900}, ! Name of Object 4
  {f10c7023-8cc6-49f8-bfe6-08d2b17c3ecd}; ! Name of Object 5

