
OS:Version,
  {384af2e6-9719-4096-b76a-b5d5650d8397}, ! Handle
  0.9.3;                                  ! Version Identifier

OS:Construction,
  {6c842d8a-89e9-4b52-9394-477412fa27ab}, ! Handle
  90.1-2004 Nonres 5B Exposed Floor Mass, ! Name
  ,                                       ! Surface Rendering Name
  {cf17f38d-55a1-4075-9e5d-f20a611c3e00}, ! Layer 1
  {880af66c-fdda-4c91-916c-77ea569e1628}, ! Layer 2
  {93fe470d-6872-4497-aae3-2f57074bca7c}; ! Layer 3

OS:Material,
  {cf17f38d-55a1-4075-9e5d-f20a611c3e00}, ! Handle
  Floor Insulation [2],                   ! Name
  MediumRough,                            ! Roughness
  0.0635689,                              ! Thickness {m}
  0.045,                                  ! Conductivity {W/m-K}
  265,                                    ! Density {kg/m3}
  836.8,                                  ! Specific Heat {J/kg-K}
  0.9,                                    ! Thermal Absorptance
  0.7,                                    ! Solar Absorptance
  0.7;                                    ! Visible Absorptance

OS:Material,
  {880af66c-fdda-4c91-916c-77ea569e1628}, ! Handle
  MAT-CC05 8 HW CONCRETE,                 ! Name
  Rough,                                  ! Roughness
  0.20321,                                ! Thickness {m}
  1.311,                                  ! Conductivity {W/m-K}
  2240,                                   ! Density {kg/m3}
  836.8,                                  ! Specific Heat {J/kg-K}
  0.9,                                    ! Thermal Absorptance
  0.7,                                    ! Solar Absorptance
  0.7;                                    ! Visible Absorptance

OS:Material:NoMass,
  {93fe470d-6872-4497-aae3-2f57074bca7c}, ! Handle
  CP02 CARPET PAD,                        ! Name
  VeryRough,                              ! Roughness
  0.21648,                                ! Thermal Resistance {m2-K/W}
  0.9,                                    ! Thermal Absorptance
  0.7,                                    ! Solar Absorptance
  0.8;                                    ! Visible Absorptance

OS:ComponentCost:LineItem,
  {45f9cc49-3953-4cd7-aa37-fd804f423977}, ! Handle
  90.1-2004 Nonres 5B Exposed Floor Mass, ! Name
  ,                                       ! Type
  Construction,                           ! Line Item Type
  90.1-2004 Nonres 5B Exposed Floor Mass, ! Item Name
  ,                                       ! Object End Use Key
  ,                                       ! Quantity {dimensionless}
  49.612,                                 ! Material Cost {$}
  CostPerArea;                            ! Material Cost Units

