
OS:Version,
  {98413f1d-61dd-4fcc-b1a6-e1e8f9d14606}, ! Handle
  0.9.3;                                  ! Version Identifier

OS:Material,
  {34c660fa-a89a-4dc8-895e-f1fb64d4c4c9}, ! Handle
  8IN Concrete HW,                        ! Name
  MediumRough,                            ! Roughness
  0.2033,                                 ! Thickness {m}
  1.7296,                                 ! Conductivity {W/m-K}
  2243,                                   ! Density {kg/m3}
  837,                                    ! Specific Heat {J/kg-K}
  0.9,                                    ! Thermal Absorptance
  0.65,                                   ! Solar Absorptance
  0.65;                                   ! Visible Absorptance

OS:Material,
  {4de68e56-501e-4866-bf73-f38bd45c127b}, ! Handle
  1/2IN Gypsum,                           ! Name
  Smooth,                                 ! Roughness
  0.01271,                                ! Thickness {m}
  0.16,                                   ! Conductivity {W/m-K}
  784.9,                                  ! Density {kg/m3}
  830,                                    ! Specific Heat {J/kg-K}
  0.9,                                    ! Thermal Absorptance
  0.92,                                   ! Solar Absorptance
  0.92;                                   ! Visible Absorptance

OS:Material,
  {b4598ab0-e876-44b1-ab39-c9fe26b29ed4}, ! Handle
  1IN Stucco,                             ! Name
  Smooth,                                 ! Roughness
  0.0253,                                 ! Thickness {m}
  0.6918,                                 ! Conductivity {W/m-K}
  1858,                                   ! Density {kg/m3}
  837,                                    ! Specific Heat {J/kg-K}
  0.9,                                    ! Thermal Absorptance
  0.92,                                   ! Solar Absorptance
  0.92;                                   ! Visible Absorptance

OS:Material,
  {2a8d5d35-1fa2-454b-88f4-26d767612e9b}, ! Handle
  Wall Insulation [14],                   ! Name
  MediumRough,                            ! Roughness
  0.0905233,                              ! Thickness {m}
  0.0432,                                 ! Conductivity {W/m-K}
  91,                                     ! Density {kg/m3}
  837,                                    ! Specific Heat {J/kg-K}
  0.9,                                    ! Thermal Absorptance
  0.5,                                    ! Solar Absorptance
  0.5;                                    ! Visible Absorptance

OS:ComponentCost:LineItem,
  {a172bb9b-9b36-4b27-8380-18a5563a0546}, ! Handle
  90.1-1999 Res B21 Ext Wall Mass,        ! Name
  ,                                       ! Type
  Construction,                           ! Line Item Type
  90.1-1999 Res B21 Ext Wall Mass,        ! Item Name
  ,                                       ! Object End Use Key
  ,                                       ! Quantity {dimensionless}
  70.253,                                 ! Material Cost {$}
  CostPerArea;                            ! Material Cost Units

OS:Construction,
  {3c2a54d2-fcb4-4146-bc4f-ea62fb486592}, ! Handle
  90.1-1999 Res B21 Ext Wall Mass,        ! Name
  ,                                       ! Surface Rendering Name
  {b4598ab0-e876-44b1-ab39-c9fe26b29ed4}, ! Layer 1
  {34c660fa-a89a-4dc8-895e-f1fb64d4c4c9}, ! Layer 2
  {2a8d5d35-1fa2-454b-88f4-26d767612e9b}, ! Layer 3
  {4de68e56-501e-4866-bf73-f38bd45c127b}; ! Layer 4

