
OS:Version,
  {d295f170-645f-40ef-8758-ad39422eaecb}, ! Handle
  0.9.3;                                  ! Version Identifier

OS:Construction,
  {1cbc3594-9a3c-4f51-9086-7acf8b103b0b}, ! Handle
  90.1-1999 Res B21 Ext Wall Mass,        ! Name
  ,                                       ! Surface Rendering Name
  {cabee74d-0919-4e2f-b551-631ce46da36b}, ! Layer 1
  {eb2bb58e-5399-4b31-844a-cad44de2f588}, ! Layer 2
  {bc60f962-e4df-4508-9eb1-3e3699468a18}, ! Layer 3
  {cdb8b356-24d3-42cc-9c3e-97080ccaa5e3}; ! Layer 4

OS:Material,
  {cabee74d-0919-4e2f-b551-631ce46da36b}, ! Handle
  1IN Stucco,                             ! Name
  Smooth,                                 ! Roughness
  0.0253,                                 ! Thickness {m}
  0.6918,                                 ! Conductivity {W/m-K}
  1858,                                   ! Density {kg/m3}
  837,                                    ! Specific Heat {J/kg-K}
  0.9,                                    ! Thermal Absorptance
  0.92,                                   ! Solar Absorptance
  0.92;                                   ! Visible Absorptance

OS:Material,
  {eb2bb58e-5399-4b31-844a-cad44de2f588}, ! Handle
  8IN Concrete HW,                        ! Name
  MediumRough,                            ! Roughness
  0.2033,                                 ! Thickness {m}
  1.7296,                                 ! Conductivity {W/m-K}
  2243,                                   ! Density {kg/m3}
  837,                                    ! Specific Heat {J/kg-K}
  0.9,                                    ! Thermal Absorptance
  0.65,                                   ! Solar Absorptance
  0.65;                                   ! Visible Absorptance

OS:Material,
  {bc60f962-e4df-4508-9eb1-3e3699468a18}, ! Handle
  Wall Insulation [14],                   ! Name
  MediumRough,                            ! Roughness
  0.0905233,                              ! Thickness {m}
  0.0432,                                 ! Conductivity {W/m-K}
  91,                                     ! Density {kg/m3}
  837,                                    ! Specific Heat {J/kg-K}
  0.9,                                    ! Thermal Absorptance
  0.5,                                    ! Solar Absorptance
  0.5;                                    ! Visible Absorptance

OS:Material,
  {cdb8b356-24d3-42cc-9c3e-97080ccaa5e3}, ! Handle
  1/2IN Gypsum,                           ! Name
  Smooth,                                 ! Roughness
  0.01271,                                ! Thickness {m}
  0.16,                                   ! Conductivity {W/m-K}
  784.9,                                  ! Density {kg/m3}
  830,                                    ! Specific Heat {J/kg-K}
  0.9,                                    ! Thermal Absorptance
  0.92,                                   ! Solar Absorptance
  0.92;                                   ! Visible Absorptance

OS:ComponentCost:LineItem,
  {a981e0dd-a2f2-4f9e-b459-7e4d100e2ad8}, ! Handle
  90.1-1999 Res B21 Ext Wall Mass,        ! Name
  ,                                       ! Type
  Construction,                           ! Line Item Type
  90.1-1999 Res B21 Ext Wall Mass,        ! Item Name
  ,                                       ! Object End Use Key
  ,                                       ! Quantity {dimensionless}
  70.253,                                 ! Material Cost {$}
  CostPerArea;                            ! Material Cost Units

OS:ComponentData,
  {e1d99481-6d12-426b-a69a-05f5c43bb17c}, ! Handle
  Component Data 1,                       ! Name
  {3c7e5fc6-b2a0-43b4-a0a6-ff06d6996578}, ! UUID
  {bf19ab64-489d-49b1-9693-33b4dd7ceea8}, ! Version UUID
  1363981256,                             ! Creation Timestamp
  1363981256,                             ! Version Timestamp
  {1cbc3594-9a3c-4f51-9086-7acf8b103b0b}, ! Name of Object 1
  {cabee74d-0919-4e2f-b551-631ce46da36b}, ! Name of Object 2
  {eb2bb58e-5399-4b31-844a-cad44de2f588}, ! Name of Object 3
  {bc60f962-e4df-4508-9eb1-3e3699468a18}, ! Name of Object 4
  {cdb8b356-24d3-42cc-9c3e-97080ccaa5e3}, ! Name of Object 5
  {a981e0dd-a2f2-4f9e-b459-7e4d100e2ad8}; ! Name of Object 6

