
OS:Version,
  {8948913a-60ac-475d-97c4-e4fd9726dcca}, ! Handle
  0.9.3;                                  ! Version Identifier

OS:Construction,
  {304989e3-1890-4e8c-9e9b-acfbe3edd7fe}, ! Handle
  90.1-2001 Res B19 Window Fixed,         ! Name
  ,                                       ! Surface Rendering Name
  {d67f340c-ef06-48c6-91f8-c778f631f36c}; ! Layer 1

OS:WindowMaterial:Glazing,
  {d67f340c-ef06-48c6-91f8-c778f631f36c}, ! Handle
  Theoretical Glass [94],                 ! Name
  SpectralAverage,                        ! Optical Data Type
  ,                                       ! Window Glass Spectral Data Set Name
  0.003,                                  ! Thickness {m}
  0.469989,                               ! Solar Transmittance at Normal Incidence
  0.480011,                               ! Front Side Solar Reflectance at Normal Incidence
  0.480011,                               ! Back Side Solar Reflectance at Normal Incidence
  0.489393,                               ! Visible Transmittance at Normal Incidence
  0.460607,                               ! Front Side Visible Reflectance at Normal Incidence
  0.460607,                               ! Back Side Visible Reflectance at Normal Incidence
  0,                                      ! Infrared Transmittance at Normal Incidence
  0.9,                                    ! Front Side Infrared Hemispherical Emissivity
  0.9,                                    ! Back Side Infrared Hemispherical Emissivity
  0.0137862;                              ! Conductivity {W/m-K}

OS:ComponentCost:LineItem,
  {caa2526c-63f7-4474-ac75-187d1bd2421d}, ! Handle
  90.1-2001 Res B19 Window Fixed,         ! Name
  ,                                       ! Type
  Construction,                           ! Line Item Type
  90.1-2001 Res B19 Window Fixed,         ! Item Name
  ,                                       ! Object End Use Key
  ,                                       ! Quantity {dimensionless}
  537.952,                                ! Material Cost {$}
  CostPerArea;                            ! Material Cost Units

