
OS:Version,
  {f5292454-0aa7-4b76-abd5-6f280e4dbdd0}, ! Handle
  0.9.3;                                  ! Version Identifier

OS:Material,
  {4916cbf2-c65b-4934-b8b8-4bebc2844d76}, ! Handle
  1IN Wood Decking,                       ! Name
  MediumSmooth,                           ! Roughness
  0.0254,                                 ! Thickness {m}
  0.1211,                                 ! Conductivity {W/m-K}
  593,                                    ! Density {kg/m3}
  2510,                                   ! Specific Heat {J/kg-K}
  0.9,                                    ! Thermal Absorptance
  0.78,                                   ! Solar Absorptance
  0.78;                                   ! Visible Absorptance

OS:Material,
  {58458da2-2dea-48eb-b131-0ed45cbcb0b9}, ! Handle
  1/2IN Gypsum,                           ! Name
  Smooth,                                 ! Roughness
  0.01271,                                ! Thickness {m}
  0.16,                                   ! Conductivity {W/m-K}
  784.9,                                  ! Density {kg/m3}
  830,                                    ! Specific Heat {J/kg-K}
  0.9,                                    ! Thermal Absorptance
  0.92,                                   ! Solar Absorptance
  0.92;                                   ! Visible Absorptance

OS:Construction,
  {7cb48c46-16ac-4735-a40a-18c31a9ac175}, ! Handle
  90.1-1999 Res B24 Roof Attic and Other, ! Name
  ,                                       ! Surface Rendering Name
  {8168c6dc-4e00-44f3-8c50-ab4df5278d5d}, ! Layer 1
  {4916cbf2-c65b-4934-b8b8-4bebc2844d76}, ! Layer 2
  {622dcd81-dd43-480d-8a62-5eb7b1f3264e}, ! Layer 3
  {58458da2-2dea-48eb-b131-0ed45cbcb0b9}; ! Layer 4

OS:Material,
  {8168c6dc-4e00-44f3-8c50-ab4df5278d5d}, ! Handle
  Wood Shingles,                          ! Name
  VeryRough,                              ! Roughness
  0.0178,                                 ! Thickness {m}
  0.115,                                  ! Conductivity {W/m-K}
  513,                                    ! Density {kg/m3}
  1255,                                   ! Specific Heat {J/kg-K}
  0.9,                                    ! Thermal Absorptance
  0.78,                                   ! Solar Absorptance
  0.78;                                   ! Visible Absorptance

OS:Material,
  {622dcd81-dd43-480d-8a62-5eb7b1f3264e}, ! Handle
  Roof Insulation [5],                    ! Name
  MediumRough,                            ! Roughness
  0.286906,                               ! Thickness {m}
  0.049,                                  ! Conductivity {W/m-K}
  265,                                    ! Density {kg/m3}
  836.8,                                  ! Specific Heat {J/kg-K}
  0.9,                                    ! Thermal Absorptance
  0.7,                                    ! Solar Absorptance
  0.7;                                    ! Visible Absorptance

OS:ComponentCost:LineItem,
  {e0edadda-a263-41d1-be30-866e682c4ab3}, ! Handle
  90.1-1999 Res B24 Roof Attic and Other, ! Name
  ,                                       ! Type
  Construction,                           ! Line Item Type
  90.1-1999 Res B24 Roof Attic and Other, ! Item Name
  ,                                       ! Object End Use Key
  ,                                       ! Quantity {dimensionless}
  34.757,                                 ! Material Cost {$}
  CostPerArea;                            ! Material Cost Units

