
OS:Version,
  {1d4c8390-45c5-465f-be85-3374f700cd07}, ! Handle
  0.9.3;                                  ! Version Identifier

OS:Construction,
  {971be676-aa9c-4fd5-8c24-8df67afa6fbe}, ! Handle
  90.1-2001 Nonres B24 Ext Wall Mass,     ! Name
  ,                                       ! Surface Rendering Name
  {b4e18a15-f4c2-4698-9d15-d0fbf7437c95}, ! Layer 1
  {aa5184eb-fbeb-4ea8-86ca-2bb1e9daa1db}, ! Layer 2
  {8aefca5f-4a54-4fc6-923a-0c3676c9edcd}, ! Layer 3
  {60633a5b-e575-4d34-8601-55ad1296d690}; ! Layer 4

OS:Material,
  {b4e18a15-f4c2-4698-9d15-d0fbf7437c95}, ! Handle
  1IN Stucco,                             ! Name
  Smooth,                                 ! Roughness
  0.0253,                                 ! Thickness {m}
  0.6918,                                 ! Conductivity {W/m-K}
  1858,                                   ! Density {kg/m3}
  837,                                    ! Specific Heat {J/kg-K}
  0.9,                                    ! Thermal Absorptance
  0.92,                                   ! Solar Absorptance
  0.92;                                   ! Visible Absorptance

OS:Material,
  {aa5184eb-fbeb-4ea8-86ca-2bb1e9daa1db}, ! Handle
  8IN Concrete HW,                        ! Name
  MediumRough,                            ! Roughness
  0.2033,                                 ! Thickness {m}
  1.7296,                                 ! Conductivity {W/m-K}
  2243,                                   ! Density {kg/m3}
  837,                                    ! Specific Heat {J/kg-K}
  0.9,                                    ! Thermal Absorptance
  0.65,                                   ! Solar Absorptance
  0.65;                                   ! Visible Absorptance

OS:Material,
  {8aefca5f-4a54-4fc6-923a-0c3676c9edcd}, ! Handle
  Wall Insulation [12],                   ! Name
  MediumRough,                            ! Roughness
  0.0784782,                              ! Thickness {m}
  0.0432,                                 ! Conductivity {W/m-K}
  91,                                     ! Density {kg/m3}
  837,                                    ! Specific Heat {J/kg-K}
  0.9,                                    ! Thermal Absorptance
  0.5,                                    ! Solar Absorptance
  0.5;                                    ! Visible Absorptance

OS:Material,
  {60633a5b-e575-4d34-8601-55ad1296d690}, ! Handle
  1/2IN Gypsum,                           ! Name
  Smooth,                                 ! Roughness
  0.01271,                                ! Thickness {m}
  0.16,                                   ! Conductivity {W/m-K}
  784.9,                                  ! Density {kg/m3}
  830,                                    ! Specific Heat {J/kg-K}
  0.9,                                    ! Thermal Absorptance
  0.92,                                   ! Solar Absorptance
  0.92;                                   ! Visible Absorptance

OS:ComponentCost:LineItem,
  {be3eb1ee-c650-449c-800e-4a1d85fba24f}, ! Handle
  90.1-2001 Nonres B24 Ext Wall Mass,     ! Name
  ,                                       ! Type
  Construction,                           ! Line Item Type
  90.1-2001 Nonres B24 Ext Wall Mass,     ! Item Name
  ,                                       ! Object End Use Key
  ,                                       ! Quantity {dimensionless}
  67.955,                                 ! Material Cost {$}
  CostPerArea;                            ! Material Cost Units

OS:ComponentData,
  {d2139f11-6c22-41ef-8399-22231fc277c7}, ! Handle
  Component Data 1,                       ! Name
  {0e2bdd00-ec52-444b-84a9-d0f17f8bd4f2}, ! UUID
  {759066d4-b25e-4305-b825-63b120cb40e5}, ! Version UUID
  1363981425,                             ! Creation Timestamp
  1363981425,                             ! Version Timestamp
  {971be676-aa9c-4fd5-8c24-8df67afa6fbe}, ! Name of Object 1
  {b4e18a15-f4c2-4698-9d15-d0fbf7437c95}, ! Name of Object 2
  {aa5184eb-fbeb-4ea8-86ca-2bb1e9daa1db}, ! Name of Object 3
  {8aefca5f-4a54-4fc6-923a-0c3676c9edcd}, ! Name of Object 4
  {60633a5b-e575-4d34-8601-55ad1296d690}, ! Name of Object 5
  {be3eb1ee-c650-449c-800e-4a1d85fba24f}; ! Name of Object 6

