
OS:Version,
  {2aa20c31-2e19-4c10-86d4-260e86f7567f}, ! Handle
  0.9.3;                                  ! Version Identifier

OS:Material,
  {5c872ed3-45d7-4232-9a89-6cd7cd545449}, ! Handle
  Wall Insulation [12],                   ! Name
  MediumRough,                            ! Roughness
  0.0784782,                              ! Thickness {m}
  0.0432,                                 ! Conductivity {W/m-K}
  91,                                     ! Density {kg/m3}
  837,                                    ! Specific Heat {J/kg-K}
  0.9,                                    ! Thermal Absorptance
  0.5,                                    ! Solar Absorptance
  0.5;                                    ! Visible Absorptance

OS:ComponentCost:LineItem,
  {8bba0042-7e52-4d94-b830-a1aab1a976b9}, ! Handle
  90.1-2001 Nonres B24 Ext Wall Mass,     ! Name
  ,                                       ! Type
  Construction,                           ! Line Item Type
  90.1-2001 Nonres B24 Ext Wall Mass,     ! Item Name
  ,                                       ! Object End Use Key
  ,                                       ! Quantity {dimensionless}
  67.955,                                 ! Material Cost {$}
  CostPerArea;                            ! Material Cost Units

OS:Material,
  {e950921a-d5ff-4c04-b90a-40349dec0d3d}, ! Handle
  1/2IN Gypsum,                           ! Name
  Smooth,                                 ! Roughness
  0.01271,                                ! Thickness {m}
  0.16,                                   ! Conductivity {W/m-K}
  784.9,                                  ! Density {kg/m3}
  830,                                    ! Specific Heat {J/kg-K}
  0.9,                                    ! Thermal Absorptance
  0.92,                                   ! Solar Absorptance
  0.92;                                   ! Visible Absorptance

OS:Construction,
  {fbe78e94-e910-40f4-877e-4d7019746c5d}, ! Handle
  90.1-2001 Nonres B24 Ext Wall Mass,     ! Name
  ,                                       ! Surface Rendering Name
  {ba58942f-bf37-4cf2-b1c2-8ec7d912fe43}, ! Layer 1
  {b5d65e5a-132d-465d-a159-165db2247dd4}, ! Layer 2
  {5c872ed3-45d7-4232-9a89-6cd7cd545449}, ! Layer 3
  {e950921a-d5ff-4c04-b90a-40349dec0d3d}; ! Layer 4

OS:Material,
  {ba58942f-bf37-4cf2-b1c2-8ec7d912fe43}, ! Handle
  1IN Stucco,                             ! Name
  Smooth,                                 ! Roughness
  0.0253,                                 ! Thickness {m}
  0.6918,                                 ! Conductivity {W/m-K}
  1858,                                   ! Density {kg/m3}
  837,                                    ! Specific Heat {J/kg-K}
  0.9,                                    ! Thermal Absorptance
  0.92,                                   ! Solar Absorptance
  0.92;                                   ! Visible Absorptance

OS:Material,
  {b5d65e5a-132d-465d-a159-165db2247dd4}, ! Handle
  8IN Concrete HW,                        ! Name
  MediumRough,                            ! Roughness
  0.2033,                                 ! Thickness {m}
  1.7296,                                 ! Conductivity {W/m-K}
  2243,                                   ! Density {kg/m3}
  837,                                    ! Specific Heat {J/kg-K}
  0.9,                                    ! Thermal Absorptance
  0.65,                                   ! Solar Absorptance
  0.65;                                   ! Visible Absorptance

