
OS:Version,
  {5ad8e46e-7513-4fe5-923c-3539305b8aec}, ! Handle
  0.9.3;                                  ! Version Identifier

OS:Construction,
  {a6aaccbc-7224-4ee2-b326-abfeeff16ac6}, ! Handle
  90.1-1999 Nonres B11 Roof IEAD,         ! Name
  ,                                       ! Surface Rendering Name
  {30ef1251-5cce-4120-b6ea-0c435d2689a8}, ! Layer 1
  {c7356cfb-8c2f-4131-ac56-52805c5b3938}, ! Layer 2
  {0810e602-318e-4710-8ebb-b4b6aed9fc1d}; ! Layer 3

OS:Material,
  {30ef1251-5cce-4120-b6ea-0c435d2689a8}, ! Handle
  Roof Membrane,                          ! Name
  VeryRough,                              ! Roughness
  0.0095,                                 ! Thickness {m}
  0.16,                                   ! Conductivity {W/m-K}
  1121.29,                                ! Density {kg/m3}
  1460,                                   ! Specific Heat {J/kg-K}
  0.9,                                    ! Thermal Absorptance
  0.7,                                    ! Solar Absorptance
  0.7;                                    ! Visible Absorptance

OS:Material,
  {c7356cfb-8c2f-4131-ac56-52805c5b3938}, ! Handle
  Roof Insulation,                        ! Name
  MediumRough,                            ! Roughness
  0.124958,                               ! Thickness {m}
  0.049,                                  ! Conductivity {W/m-K}
  265,                                    ! Density {kg/m3}
  836.8,                                  ! Specific Heat {J/kg-K}
  0.9,                                    ! Thermal Absorptance
  0.7,                                    ! Solar Absorptance
  0.7;                                    ! Visible Absorptance

OS:Material,
  {0810e602-318e-4710-8ebb-b4b6aed9fc1d}, ! Handle
  Metal Decking,                          ! Name
  MediumSmooth,                           ! Roughness
  0.001524,                               ! Thickness {m}
  45.006,                                 ! Conductivity {W/m-K}
  7680,                                   ! Density {kg/m3}
  418.4,                                  ! Specific Heat {J/kg-K}
  0.9,                                    ! Thermal Absorptance
  0.7,                                    ! Solar Absorptance
  0.3;                                    ! Visible Absorptance

OS:ComponentCost:LineItem,
  {89754eaf-9d8a-40f0-a20d-371d20fa6afa}, ! Handle
  90.1-1999 Nonres B11 Roof IEAD,         ! Name
  ,                                       ! Type
  Construction,                           ! Line Item Type
  90.1-1999 Nonres B11 Roof IEAD,         ! Item Name
  ,                                       ! Object End Use Key
  ,                                       ! Quantity {dimensionless}
  49.208,                                 ! Material Cost {$}
  CostPerArea;                            ! Material Cost Units

