
OS:Version,
  {cd74d344-1a5e-4ea9-a47e-705a245422c1}, ! Handle
  0.9.3;                                  ! Version Identifier

OS:ComponentCost:LineItem,
  {60cb4ea5-7202-453e-a9a8-e84ff48fc88c}, ! Handle
  90.1-2007 Nonres 8A Ext Slab Unheated - 4in Slab without Carpet, ! Name
  ,                                       ! Type
  Construction,                           ! Line Item Type
  90.1-2007 Nonres 8A Ext Slab Unheated - 4in Slab without Carpet, ! Item Name
  ,                                       ! Object End Use Key
  ,                                       ! Quantity {dimensionless}
  45.52,                                  ! Material Cost {$}
  CostPerArea;                            ! Material Cost Units

OS:Construction,
  {67a3d23f-3c83-4612-a42c-ac2a15d56a0e}, ! Handle
  90.1-2007 Nonres 8A Ext Slab Unheated - 4in Slab without Carpet, ! Name
  ,                                       ! Surface Rendering Name
  {9a0cc135-90c9-4975-b3fa-1eb8a628c29f}; ! Layer 1

OS:Material,
  {9a0cc135-90c9-4975-b3fa-1eb8a628c29f}, ! Handle
  MAT-CC05 4 HW CONCRETE,                 ! Name
  Rough,                                  ! Roughness
  0.1016,                                 ! Thickness {m}
  1.311,                                  ! Conductivity {W/m-K}
  2240,                                   ! Density {kg/m3}
  836.8,                                  ! Specific Heat {J/kg-K}
  0.9,                                    ! Thermal Absorptance
  0.7,                                    ! Solar Absorptance
  0.7;                                    ! Visible Absorptance

