
OS:Version,
  {01ba0dd7-9058-4818-98dc-4d242138a447}, ! Handle
  0.9.3;                                  ! Version Identifier

OS:Material,
  {c36de2ac-1f17-4eb4-9ef9-d888b8a24927}, ! Handle
  1/2IN Gypsum,                           ! Name
  Smooth,                                 ! Roughness
  0.01271,                                ! Thickness {m}
  0.16,                                   ! Conductivity {W/m-K}
  784.9,                                  ! Density {kg/m3}
  830,                                    ! Specific Heat {J/kg-K}
  0.9,                                    ! Thermal Absorptance
  0.92,                                   ! Solar Absorptance
  0.92;                                   ! Visible Absorptance

OS:Material,
  {52c7151a-3e58-490e-9a4c-731ace9cb01d}, ! Handle
  Wood Siding,                            ! Name
  MediumSmooth,                           ! Roughness
  0.01,                                   ! Thickness {m}
  0.11,                                   ! Conductivity {W/m-K}
  544.62,                                 ! Density {kg/m3}
  1210,                                   ! Specific Heat {J/kg-K}
  0.9,                                    ! Thermal Absorptance
  0.78,                                   ! Solar Absorptance
  0.78;                                   ! Visible Absorptance

OS:Construction,
  {f25f2208-b2cb-4278-9db5-a1e81819bc28}, ! Handle
  90.1-2001 Nonres B2 Ext Wall Wood-Framed and Other, ! Name
  ,                                       ! Surface Rendering Name
  {52c7151a-3e58-490e-9a4c-731ace9cb01d}, ! Layer 1
  {c581bc17-af82-42a6-b6f9-aac62a2141a2}, ! Layer 2
  {c36de2ac-1f17-4eb4-9ef9-d888b8a24927}; ! Layer 3

OS:Material,
  {c581bc17-af82-42a6-b6f9-aac62a2141a2}, ! Handle
  Wall Insulation [2],                    ! Name
  MediumRough,                            ! Roughness
  0.0746874,                              ! Thickness {m}
  0.045,                                  ! Conductivity {W/m-K}
  265,                                    ! Density {kg/m3}
  836.8,                                  ! Specific Heat {J/kg-K}
  0.9,                                    ! Thermal Absorptance
  0.7,                                    ! Solar Absorptance
  0.7;                                    ! Visible Absorptance

OS:ComponentCost:LineItem,
  {0a31cfb5-71f2-4774-a604-2672ca638fe8}, ! Handle
  90.1-2001 Nonres B2 Ext Wall Wood-Framed and Other, ! Name
  ,                                       ! Type
  Construction,                           ! Line Item Type
  90.1-2001 Nonres B2 Ext Wall Wood-Framed and Other, ! Item Name
  ,                                       ! Object End Use Key
  ,                                       ! Quantity {dimensionless}
  73.056,                                 ! Material Cost {$}
  CostPerArea;                            ! Material Cost Units

