
OS:Version,
  {03baa663-a18b-4a1f-bcdc-a68e4d66d532}, ! Handle
  0.9.3;                                  ! Version Identifier

OS:ComponentCost:LineItem,
  {f1c966e7-8986-4a39-8e3c-5d51a1c63642}, ! Handle
  90.1-2004 Nonres 1A Exposed Floor Mass, ! Name
  ,                                       ! Type
  Construction,                           ! Line Item Type
  90.1-2004 Nonres 1A Exposed Floor Mass, ! Item Name
  ,                                       ! Object End Use Key
  ,                                       ! Quantity {dimensionless}
  39.18,                                  ! Material Cost {$}
  CostPerArea;                            ! Material Cost Units

OS:Construction,
  {76523e43-929f-4453-b958-5665b91eeb88}, ! Handle
  90.1-2004 Nonres 1A Exposed Floor Mass, ! Name
  ,                                       ! Surface Rendering Name
  {3f248fb0-3afd-4453-b29a-95b8b4b300f7}, ! Layer 1
  {e2593742-579f-4dc1-a208-5dd489dee5bf}; ! Layer 2

OS:Material,
  {3f248fb0-3afd-4453-b29a-95b8b4b300f7}, ! Handle
  MAT-CC05 8 HW CONCRETE,                 ! Name
  Rough,                                  ! Roughness
  0.20321,                                ! Thickness {m}
  1.311,                                  ! Conductivity {W/m-K}
  2240,                                   ! Density {kg/m3}
  836.8,                                  ! Specific Heat {J/kg-K}
  0.9,                                    ! Thermal Absorptance
  0.7,                                    ! Solar Absorptance
  0.7;                                    ! Visible Absorptance

OS:Material:NoMass,
  {e2593742-579f-4dc1-a208-5dd489dee5bf}, ! Handle
  CP02 CARPET PAD,                        ! Name
  VeryRough,                              ! Roughness
  0.21648,                                ! Thermal Resistance {m2-K/W}
  0.9,                                    ! Thermal Absorptance
  0.7,                                    ! Solar Absorptance
  0.8;                                    ! Visible Absorptance

