
OS:Version,
  {88a47e54-0b7f-4236-990a-234fa6316516}, ! Handle
  0.9.3;                                  ! Version Identifier

OS:ComponentCost:LineItem,
  {9b543cd5-fdf0-4ae9-8b55-e2d397e6cc7f}, ! Handle
  90.1-1999 Res B18 Ext Wall Wood-Framed and Other, ! Name
  ,                                       ! Type
  Construction,                           ! Line Item Type
  90.1-1999 Res B18 Ext Wall Wood-Framed and Other, ! Item Name
  ,                                       ! Object End Use Key
  ,                                       ! Quantity {dimensionless}
  73.056,                                 ! Material Cost {$}
  CostPerArea;                            ! Material Cost Units

OS:Material,
  {0a65cc38-df97-44fd-b885-f1187befdd0b}, ! Handle
  1/2IN Gypsum,                           ! Name
  Smooth,                                 ! Roughness
  0.01271,                                ! Thickness {m}
  0.16,                                   ! Conductivity {W/m-K}
  784.9,                                  ! Density {kg/m3}
  830,                                    ! Specific Heat {J/kg-K}
  0.9,                                    ! Thermal Absorptance
  0.92,                                   ! Solar Absorptance
  0.92;                                   ! Visible Absorptance

OS:Construction,
  {7cbe36a7-1fe1-4c14-af5b-0214911d92f5}, ! Handle
  90.1-1999 Res B18 Ext Wall Wood-Framed and Other, ! Name
  ,                                       ! Surface Rendering Name
  {8f6b29d3-32b1-4a11-a9c8-9cd160397503}, ! Layer 1
  {6e8d3fcc-d916-44ad-9377-1359f49fb8dd}, ! Layer 2
  {0a65cc38-df97-44fd-b885-f1187befdd0b}; ! Layer 3

OS:Material,
  {8f6b29d3-32b1-4a11-a9c8-9cd160397503}, ! Handle
  Wood Siding,                            ! Name
  MediumSmooth,                           ! Roughness
  0.01,                                   ! Thickness {m}
  0.11,                                   ! Conductivity {W/m-K}
  544.62,                                 ! Density {kg/m3}
  1210,                                   ! Specific Heat {J/kg-K}
  0.9,                                    ! Thermal Absorptance
  0.78,                                   ! Solar Absorptance
  0.78;                                   ! Visible Absorptance

OS:Material,
  {6e8d3fcc-d916-44ad-9377-1359f49fb8dd}, ! Handle
  Wall Insulation [2],                    ! Name
  MediumRough,                            ! Roughness
  0.0746874,                              ! Thickness {m}
  0.045,                                  ! Conductivity {W/m-K}
  265,                                    ! Density {kg/m3}
  836.8,                                  ! Specific Heat {J/kg-K}
  0.9,                                    ! Thermal Absorptance
  0.7,                                    ! Solar Absorptance
  0.7;                                    ! Visible Absorptance

