
OS:Version,
  {c07f7b42-80d5-46aa-9e95-21ba2bc86c31}, !- Handle
  1.1.0;                                  !- Version Identifier

OS:Construction,
  {156fb747-6699-472a-9280-a52ffba30637}, !- Handle
  Dbl Green 3mm/13mm Air,                 !- Name
  ,                                       !- Surface Rendering Name
  {49381479-8456-4da5-bb79-591a3fbd0227}, !- Layer 1
  {887dd185-9777-4294-9fad-cd9592842838}, !- Layer 2
  {80836ff8-22f5-4dca-9428-7afeeeddea35}; !- Layer 3

OS:WindowMaterial:Glazing,
  {49381479-8456-4da5-bb79-591a3fbd0227}, !- Handle
  GREEN 3MM,                              !- Name
  SpectralAverage,                        !- Optical Data Type
  ,                                       !- Window Glass Spectral Data Set Name
  0.003,                                  !- Thickness {m}
  0.635,                                  !- Solar Transmittance at Normal Incidence
  0.063,                                  !- Front Side Solar Reflectance at Normal Incidence
  0.063,                                  !- Back Side Solar Reflectance at Normal Incidence
  0.822,                                  !- Visible Transmittance at Normal Incidence
  0.075,                                  !- Front Side Visible Reflectance at Normal Incidence
  0.075,                                  !- Back Side Visible Reflectance at Normal Incidence
  0,                                      !- Infrared Transmittance at Normal Incidence
  0.84,                                   !- Front Side Infrared Hemispherical Emissivity
  0.84,                                   !- Back Side Infrared Hemispherical Emissivity
  0.9;                                    !- Conductivity {W/m-K}

OS:WindowMaterial:Gas,
  {887dd185-9777-4294-9fad-cd9592842838}, !- Handle
  AIR 13MM,                               !- Name
  Air,                                    !- Gas Type
  0.0127;                                 !- Thickness {m}

OS:WindowMaterial:Glazing,
  {80836ff8-22f5-4dca-9428-7afeeeddea35}, !- Handle
  CLEAR 3MM,                              !- Name
  SpectralAverage,                        !- Optical Data Type
  ,                                       !- Window Glass Spectral Data Set Name
  0.003,                                  !- Thickness {m}
  0.837,                                  !- Solar Transmittance at Normal Incidence
  0.075,                                  !- Front Side Solar Reflectance at Normal Incidence
  0.075,                                  !- Back Side Solar Reflectance at Normal Incidence
  0.898,                                  !- Visible Transmittance at Normal Incidence
  0.081,                                  !- Front Side Visible Reflectance at Normal Incidence
  0.081,                                  !- Back Side Visible Reflectance at Normal Incidence
  0,                                      !- Infrared Transmittance at Normal Incidence
  0.84,                                   !- Front Side Infrared Hemispherical Emissivity
  0.84,                                   !- Back Side Infrared Hemispherical Emissivity
  0.9;                                    !- Conductivity {W/m-K}

