
! 
OS:Version,
  {9c37d538-db0d-4a47-9850-5bede7e76bd5}, !- Handle
  1.13.0;                                 !- Version Identifier


! {"nombreProductoCorto": "STADIP 66.2 con COOL-LITE ST167", "codigoEAN": "", "handle": "8c4b3880-07ad-4210-925e-d382f36781e0", "g": 0.66, "tV": 0.71, "u": 5.5, "nombreProducto": "STADIP 66.2 con COOL-LITE ST167\nU:5.5 W/m2K - g:0.66 - Tv: 0.71"}
OS:WindowMaterial:SimpleGlazingSystem,
  {8c4b3880-07ad-4210-925e-d382f36781e0}, !- Handle
  STADIP 66.2 con COOL-LITE ST167, !- Name
  5.5,                                    !- U-Factor {W/m2-K}
  0.66,                                    !- Solar Heat Gain Coefficient
  0.71;                                    !- Visible Transmittance     
  
  
OS:Construction,
  {0761a2a1-c920-4bb7-8426-53dc6697b8e7}, !- Handle
  STADIP 66.2 con COOL-LITE ST167,                         !- Name
  ,                                       !- Surface Rendering Name
  {8c4b3880-07ad-4210-925e-d382f36781e0}; !- Layer 1  

