
OS:Version,
  {77bb8af9-e8f8-4145-ab7b-263c23ae58ac}, ! Handle
  0.9.3;                                  ! Version Identifier

OS:ComponentCost:LineItem,
  {64253f04-3e06-4f4f-aad9-ef7d96023f65}, ! Handle
  90.1-2001 Nonres B1 Ext Wall Steel-Framed, ! Name
  ,                                       ! Type
  Construction,                           ! Line Item Type
  90.1-2001 Nonres B1 Ext Wall Steel-Framed, ! Item Name
  ,                                       ! Object End Use Key
  ,                                       ! Quantity {dimensionless}
  87.08,                                  ! Material Cost {$}
  CostPerArea;                            ! Material Cost Units

OS:Material,
  {71e3697a-735d-4b74-8361-18f2c7ef2eae}, ! Handle
  1/2IN Gypsum,                           ! Name
  Smooth,                                 ! Roughness
  0.01271,                                ! Thickness {m}
  0.16,                                   ! Conductivity {W/m-K}
  784.9,                                  ! Density {kg/m3}
  830,                                    ! Specific Heat {J/kg-K}
  0.9,                                    ! Thermal Absorptance
  0.92,                                   ! Solar Absorptance
  0.92;                                   ! Visible Absorptance

OS:Construction,
  {4d644f7c-e01a-4709-b863-72e90c70666a}, ! Handle
  90.1-2001 Nonres B1 Ext Wall Steel-Framed, ! Name
  ,                                       ! Surface Rendering Name
  {05822f9c-d1f6-4f33-8738-30d94554aee0}, ! Layer 1
  {d7a7784a-5c58-4a6d-b331-b1f90262c969}, ! Layer 2
  {71e3697a-735d-4b74-8361-18f2c7ef2eae}; ! Layer 3

OS:Material:NoMass,
  {05822f9c-d1f6-4f33-8738-30d94554aee0}, ! Handle
  MAT-SHEATH,                             ! Name
  Rough,                                  ! Roughness
  0.36256,                                ! Thermal Resistance {m2-K/W}
  0.9,                                    ! Thermal Absorptance
  0.7,                                    ! Solar Absorptance
  0.7;                                    ! Visible Absorptance

OS:Material,
  {d7a7784a-5c58-4a6d-b331-b1f90262c969}, ! Handle
  Wall Insulation [1],                    ! Name
  MediumRough,                            ! Roughness
  0.0373223,                              ! Thickness {m}
  0.045,                                  ! Conductivity {W/m-K}
  265,                                    ! Density {kg/m3}
  836.8,                                  ! Specific Heat {J/kg-K}
  0.9,                                    ! Thermal Absorptance
  0.7,                                    ! Solar Absorptance
  0.7;                                    ! Visible Absorptance

