
OS:Version,
  {26e4749c-a25e-4bfe-8bf7-7db3c5e1ed1e}, ! Handle
  0.9.3;                                  ! Version Identifier

OS:Material,
  {e12dfb63-93f1-46f6-afe2-8fe63de1ffdf}, ! Handle
  Metal Decking,                          ! Name
  MediumSmooth,                           ! Roughness
  0.001524,                               ! Thickness {m}
  45.006,                                 ! Conductivity {W/m-K}
  7680,                                   ! Density {kg/m3}
  418.4,                                  ! Specific Heat {J/kg-K}
  0.9,                                    ! Thermal Absorptance
  0.7,                                    ! Solar Absorptance
  0.3;                                    ! Visible Absorptance

OS:ComponentCost:LineItem,
  {3e21e1c8-3927-48e0-8566-1535d9c88afb}, ! Handle
  90.1-2007 Nonres 4B Roof IEAD,          ! Name
  ,                                       ! Type
  Construction,                           ! Line Item Type
  90.1-2007 Nonres 4B Roof IEAD,          ! Item Name
  ,                                       ! Object End Use Key
  ,                                       ! Quantity {dimensionless}
  52.87,                                  ! Material Cost {$}
  CostPerArea;                            ! Material Cost Units

OS:Material,
  {fb71dba2-e0be-41d2-8b38-ff275b7bcc1a}, ! Handle
  Roof Membrane,                          ! Name
  VeryRough,                              ! Roughness
  0.0095,                                 ! Thickness {m}
  0.16,                                   ! Conductivity {W/m-K}
  1121.29,                                ! Density {kg/m3}
  1460,                                   ! Specific Heat {J/kg-K}
  0.9,                                    ! Thermal Absorptance
  0.7,                                    ! Solar Absorptance
  0.7;                                    ! Visible Absorptance

OS:Material,
  {5f9740ba-e8ef-4992-80e1-3591825fd7b7}, ! Handle
  Roof Insulation [14],                   ! Name
  MediumRough,                            ! Roughness
  0.167335,                               ! Thickness {m}
  0.049,                                  ! Conductivity {W/m-K}
  265,                                    ! Density {kg/m3}
  836.8,                                  ! Specific Heat {J/kg-K}
  0.9,                                    ! Thermal Absorptance
  0.7,                                    ! Solar Absorptance
  0.7;                                    ! Visible Absorptance

OS:Construction,
  {092fe97d-3e13-4fec-abc4-978d1ee45925}, ! Handle
  90.1-2007 Nonres 4B Roof IEAD,          ! Name
  ,                                       ! Surface Rendering Name
  {fb71dba2-e0be-41d2-8b38-ff275b7bcc1a}, ! Layer 1
  {5f9740ba-e8ef-4992-80e1-3591825fd7b7}, ! Layer 2
  {e12dfb63-93f1-46f6-afe2-8fe63de1ffdf}; ! Layer 3

