
OS:Version,
  {57970e9b-6eae-481b-acfd-eb093e556c24}, ! Handle
  0.9.3;                                  ! Version Identifier

OS:Material,
  {958cc785-e49c-4741-b539-f91232b3f3e0}, ! Handle
  GP01 1/2 GYPSUM,                        ! Name
  Smooth,                                 ! Roughness
  0.01271,                                ! Thickness {m}
  0.16,                                   ! Conductivity {W/m-K}
  800,                                    ! Density {kg/m3}
  1090,                                   ! Specific Heat {J/kg-K}
  0.9,                                    ! Thermal Absorptance
  0.7,                                    ! Solar Absorptance
  0.5;                                    ! Visible Absorptance

OS:Construction,
  {0bab206d-bf28-4584-a3f4-556999caada7}, ! Handle
  90.1-2004 Nonres 4B Int Wall,           ! Name
  ,                                       ! Surface Rendering Name
  {958cc785-e49c-4741-b539-f91232b3f3e0}, ! Layer 1
  {958cc785-e49c-4741-b539-f91232b3f3e0}; ! Layer 2

OS:ComponentCost:LineItem,
  {4b03668d-54f1-40f7-a765-956c08d422ce}, ! Handle
  90.1-2004 Nonres 4B Int Wall,           ! Name
  ,                                       ! Type
  Construction,                           ! Line Item Type
  90.1-2004 Nonres 4B Int Wall,           ! Item Name
  ,                                       ! Object End Use Key
  ,                                       ! Quantity {dimensionless}
  0,                                      ! Material Cost {$}
  CostPerArea;                            ! Material Cost Units

OS:Material,
  {ae3fe625-35bd-4ebb-b902-d2947329e0c4}, ! Handle
  GP01 1/2 GYPSUM 1,                      ! Name
  Smooth,                                 ! Roughness
  0.01271,                                ! Thickness {m}
  0.16,                                   ! Conductivity {W/m-K}
  800,                                    ! Density {kg/m3}
  1090,                                   ! Specific Heat {J/kg-K}
  0.9,                                    ! Thermal Absorptance
  0.7,                                    ! Solar Absorptance
  0.5;                                    ! Visible Absorptance

