
OS:Version,
  {44eefab6-d8b9-4237-8697-4382d857b4cb}, ! Handle
  0.9.3;                                  ! Version Identifier

OS:Material:NoMass,
  {15824701-9cbb-47ef-905e-dc2bb6973f4f}, ! Handle
  DoorMaterial,                           ! Name
  MediumRough,                            ! Roughness
  0.251589,                               ! Thermal Resistance {m2-K/W}
  0.9,                                    ! Thermal Absorptance
  0.7,                                    ! Solar Absorptance
  0.7;                                    ! Visible Absorptance

OS:Construction,
  {7eeb099f-faf0-4f65-a95e-c8063749fc5b}, ! Handle
  AEDG-SmOffice 7A Door Non-Swinging,     ! Name
  ,                                       ! Surface Rendering Name
  {15824701-9cbb-47ef-905e-dc2bb6973f4f}; ! Layer 1

OS:ComponentCost:LineItem,
  {b9d96304-f85e-4d1b-8ebd-dba412cd3350}, ! Handle
  AEDG-SmOffice 7A Door Non-Swinging,     ! Name
  ,                                       ! Type
  Construction,                           ! Line Item Type
  AEDG-SmOffice 7A Door Non-Swinging,     ! Item Name
  ,                                       ! Object End Use Key
  ,                                       ! Quantity {dimensionless}
  0,                                      ! Material Cost {$}
  CostPerArea;                            ! Material Cost Units

