
OS:Version,
  {f72f1830-77ae-46d7-9410-04b2adc2f957}, ! Handle
  0.9.3;                                  ! Version Identifier

OS:Material,
  {fc67c3a9-6b2f-4818-86aa-ef4b3a09667f}, ! Handle
  MAT-CC05 4 HW CONCRETE,                 ! Name
  Rough,                                  ! Roughness
  0.1016,                                 ! Thickness {m}
  1.311,                                  ! Conductivity {W/m-K}
  2240,                                   ! Density {kg/m3}
  836.8,                                  ! Specific Heat {J/kg-K}
  0.9,                                    ! Thermal Absorptance
  0.7,                                    ! Solar Absorptance
  0.7;                                    ! Visible Absorptance

OS:Material:NoMass,
  {d0d22eaf-aecc-4928-8c9b-7debb408f5d0}, ! Handle
  CP02 CARPET PAD,                        ! Name
  VeryRough,                              ! Roughness
  0.21648,                                ! Thermal Resistance {m2-K/W}
  0.9,                                    ! Thermal Absorptance
  0.7,                                    ! Solar Absorptance
  0.8;                                    ! Visible Absorptance

OS:Construction,
  {ebcc1dd3-4761-4b09-a222-d6154f5a08fb}, ! Handle
  90.1-2001 Nonres B13 Ext Slab Unheated - 4in Slab with Carpet, ! Name
  ,                                       ! Surface Rendering Name
  {fc67c3a9-6b2f-4818-86aa-ef4b3a09667f}, ! Layer 1
  {d0d22eaf-aecc-4928-8c9b-7debb408f5d0}; ! Layer 2

OS:ComponentCost:LineItem,
  {0e6eec0a-09eb-40df-921f-42e103981e82}, ! Handle
  90.1-2001 Nonres B13 Ext Slab Unheated - 4in Slab with Carpet, ! Name
  ,                                       ! Type
  Construction,                           ! Line Item Type
  90.1-2001 Nonres B13 Ext Slab Unheated - 4in Slab with Carpet, ! Item Name
  ,                                       ! Object End Use Key
  ,                                       ! Quantity {dimensionless}
  45.52,                                  ! Material Cost {$}
  CostPerArea;                            ! Material Cost Units

