
OS:Version,
  {c7378d36-ea0c-42a7-b710-1eaf1f1db4e3}, ! Handle
  0.9.3;                                  ! Version Identifier

OS:Construction,
  {93e68d69-e62d-4f29-8003-2309a53420e1}, ! Handle
  90.1-2007 Res 2A Ext Wall Mass,         ! Name
  ,                                       ! Surface Rendering Name
  {f6088506-c2da-4ad0-b6dd-2ae41233ccfd}, ! Layer 1
  {8c4e1c54-50df-4ccb-a180-c52c1344f1af}, ! Layer 2
  {28856f0f-1300-4389-92da-bd9ead2a0024}, ! Layer 3
  {7d1555f5-0e62-4f01-ba83-0bac106b4c2e}; ! Layer 4

OS:Material,
  {f6088506-c2da-4ad0-b6dd-2ae41233ccfd}, ! Handle
  1IN Stucco,                             ! Name
  Smooth,                                 ! Roughness
  0.0253,                                 ! Thickness {m}
  0.6918,                                 ! Conductivity {W/m-K}
  1858,                                   ! Density {kg/m3}
  837,                                    ! Specific Heat {J/kg-K}
  0.9,                                    ! Thermal Absorptance
  0.92,                                   ! Solar Absorptance
  0.92;                                   ! Visible Absorptance

OS:Material,
  {8c4e1c54-50df-4ccb-a180-c52c1344f1af}, ! Handle
  8IN Concrete HW,                        ! Name
  MediumRough,                            ! Roughness
  0.2033,                                 ! Thickness {m}
  1.7296,                                 ! Conductivity {W/m-K}
  2243,                                   ! Density {kg/m3}
  837,                                    ! Specific Heat {J/kg-K}
  0.9,                                    ! Thermal Absorptance
  0.65,                                   ! Solar Absorptance
  0.65;                                   ! Visible Absorptance

OS:Material,
  {28856f0f-1300-4389-92da-bd9ead2a0024}, ! Handle
  Wall Insulation [5],                    ! Name
  MediumRough,                            ! Roughness
  0.0453274,                              ! Thickness {m}
  0.0432,                                 ! Conductivity {W/m-K}
  91,                                     ! Density {kg/m3}
  837,                                    ! Specific Heat {J/kg-K}
  0.9,                                    ! Thermal Absorptance
  0.5,                                    ! Solar Absorptance
  0.5;                                    ! Visible Absorptance

OS:Material,
  {7d1555f5-0e62-4f01-ba83-0bac106b4c2e}, ! Handle
  1/2IN Gypsum,                           ! Name
  Smooth,                                 ! Roughness
  0.01271,                                ! Thickness {m}
  0.16,                                   ! Conductivity {W/m-K}
  784.9,                                  ! Density {kg/m3}
  830,                                    ! Specific Heat {J/kg-K}
  0.9,                                    ! Thermal Absorptance
  0.92,                                   ! Solar Absorptance
  0.92;                                   ! Visible Absorptance

OS:ComponentCost:LineItem,
  {600e92fe-f4a3-4ab0-b861-bd337bcc338d}, ! Handle
  90.1-2007 Res 2A Ext Wall Mass,         ! Name
  ,                                       ! Type
  Construction,                           ! Line Item Type
  90.1-2007 Res 2A Ext Wall Mass,         ! Item Name
  ,                                       ! Object End Use Key
  ,                                       ! Quantity {dimensionless}
  61.418,                                 ! Material Cost {$}
  CostPerArea;                            ! Material Cost Units

