
OS:Version,
  {a27495c6-6e74-4697-8d7b-2cb434a034b0}, ! Handle
  0.9.3;                                  ! Version Identifier

OS:Construction,
  {1d08525b-e409-49bf-9b42-c7a0fbab1534}, ! Handle
  90.1 Windows Window Fixed 2312 Brk-Grn-Std-Clr, ! Name
  ,                                       ! Surface Rendering Name
  {6e3e5d5d-ddf8-4c8d-b641-3d1dc2109648}; ! Layer 1

OS:WindowMaterial:Glazing,
  {6e3e5d5d-ddf8-4c8d-b641-3d1dc2109648}, ! Handle
  Theoretical Glass [312],                ! Name
  SpectralAverage,                        ! Optical Data Type
  ,                                       ! Window Glass Spectral Data Set Name
  0.003,                                  ! Thickness {m}
  0.46245,                                ! Solar Transmittance at Normal Incidence
  0.48755,                                ! Front Side Solar Reflectance at Normal Incidence
  0.48755,                                ! Back Side Solar Reflectance at Normal Incidence
  0.599285,                               ! Visible Transmittance at Normal Incidence
  0.350715,                               ! Front Side Visible Reflectance at Normal Incidence
  0.350715,                               ! Back Side Visible Reflectance at Normal Incidence
  0,                                      ! Infrared Transmittance at Normal Incidence
  0.9,                                    ! Front Side Infrared Hemispherical Emissivity
  0.9,                                    ! Back Side Infrared Hemispherical Emissivity
  0.0236463;                              ! Conductivity {W/m-K}

OS:ComponentCost:LineItem,
  {e71a3825-5629-48cb-aff6-2d9e0c03a79f}, ! Handle
  90.1 Windows Window Fixed 2312 Brk-Grn-Std-Clr, ! Name
  ,                                       ! Type
  Construction,                           ! Line Item Type
  90.1 Windows Window Fixed 2312 Brk-Grn-Std-Clr, ! Item Name
  ,                                       ! Object End Use Key
  ,                                       ! Quantity {dimensionless}
  0,                                      ! Material Cost {$}
  CostPerArea;                            ! Material Cost Units

