
OS:Version,
  {084241cb-c795-4f4a-a509-983fe51fe13d}, ! Handle
  0.9.3;                                  ! Version Identifier

OS:Construction,
  {e786c4be-09f4-4690-bfb5-6bb2289520ac}, ! Handle
  90.1 Windows Window Fixed 2312 Brk-Grn-Std-Clr, ! Name
  ,                                       ! Surface Rendering Name
  {47f32d9b-fc3c-45cd-9059-da1b786f0d01}; ! Layer 1

OS:WindowMaterial:Glazing,
  {47f32d9b-fc3c-45cd-9059-da1b786f0d01}, ! Handle
  Theoretical Glass [312],                ! Name
  SpectralAverage,                        ! Optical Data Type
  ,                                       ! Window Glass Spectral Data Set Name
  0.003,                                  ! Thickness {m}
  0.46245,                                ! Solar Transmittance at Normal Incidence
  0.48755,                                ! Front Side Solar Reflectance at Normal Incidence
  0.48755,                                ! Back Side Solar Reflectance at Normal Incidence
  0.599285,                               ! Visible Transmittance at Normal Incidence
  0.350715,                               ! Front Side Visible Reflectance at Normal Incidence
  0.350715,                               ! Back Side Visible Reflectance at Normal Incidence
  0,                                      ! Infrared Transmittance at Normal Incidence
  0.9,                                    ! Front Side Infrared Hemispherical Emissivity
  0.9,                                    ! Back Side Infrared Hemispherical Emissivity
  0.0236463;                              ! Conductivity {W/m-K}

OS:ComponentCost:LineItem,
  {56ee5d71-fb21-46b6-9045-5bef2bd2ea97}, ! Handle
  90.1 Windows Window Fixed 2312 Brk-Grn-Std-Clr, ! Name
  ,                                       ! Type
  Construction,                           ! Line Item Type
  90.1 Windows Window Fixed 2312 Brk-Grn-Std-Clr, ! Item Name
  ,                                       ! Object End Use Key
  ,                                       ! Quantity {dimensionless}
  0,                                      ! Material Cost {$}
  CostPerArea;                            ! Material Cost Units

OS:ComponentData,
  {e20c236c-4876-4332-93b1-2671b6732783}, ! Handle
  Component Data 1,                       ! Name
  {5e7b2bf3-380f-442f-98e9-0c6ec6cabee2}, ! UUID
  {1941c9de-5957-4fa2-b329-97c534d1b643}, ! Version UUID
  1363981006,                             ! Creation Timestamp
  1363981006,                             ! Version Timestamp
  {e786c4be-09f4-4690-bfb5-6bb2289520ac}, ! Name of Object 1
  {47f32d9b-fc3c-45cd-9059-da1b786f0d01}, ! Name of Object 2
  {56ee5d71-fb21-46b6-9045-5bef2bd2ea97}; ! Name of Object 3

