
OS:Version,
  {bb1e1b64-7908-44cb-b52d-3780f33c505e}, ! Handle
  0.9.3;                                  ! Version Identifier

OS:Material:NoMass,
  {c93876cd-9375-4e8f-a529-ab9ed2a73b7c}, ! Handle
  CP02 CARPET PAD,                        ! Name
  VeryRough,                              ! Roughness
  0.21648,                                ! Thermal Resistance {m2-K/W}
  0.9,                                    ! Thermal Absorptance
  0.7,                                    ! Solar Absorptance
  0.8;                                    ! Visible Absorptance

OS:Material,
  {ab071824-eeec-4698-a540-401eb0721951}, ! Handle
  Floor Insulation,                       ! Name
  MediumRough,                            ! Roughness
  0.0302276,                              ! Thickness {m}
  0.045,                                  ! Conductivity {W/m-K}
  265,                                    ! Density {kg/m3}
  836.8,                                  ! Specific Heat {J/kg-K}
  0.9,                                    ! Thermal Absorptance
  0.7,                                    ! Solar Absorptance
  0.7;                                    ! Visible Absorptance

OS:Material,
  {36193dcc-9ce3-43b6-ac96-9df2b4b97239}, ! Handle
  MAT-CC05 8 HW CONCRETE,                 ! Name
  Rough,                                  ! Roughness
  0.20321,                                ! Thickness {m}
  1.311,                                  ! Conductivity {W/m-K}
  2240,                                   ! Density {kg/m3}
  836.8,                                  ! Specific Heat {J/kg-K}
  0.9,                                    ! Thermal Absorptance
  0.7,                                    ! Solar Absorptance
  0.7;                                    ! Visible Absorptance

OS:Construction,
  {1cf43e96-489c-4739-a0ef-e4b0afe4d352}, ! Handle
  AEDG SHC Nonres 1A Exposed Floor Mass,  ! Name
  ,                                       ! Surface Rendering Name
  {ab071824-eeec-4698-a540-401eb0721951}, ! Layer 1
  {36193dcc-9ce3-43b6-ac96-9df2b4b97239}, ! Layer 2
  {c93876cd-9375-4e8f-a529-ab9ed2a73b7c}; ! Layer 3

OS:ComponentCost:LineItem,
  {9c7a3af8-c9f2-4950-ade0-1cee140a3cc8}, ! Handle
  AEDG SHC Nonres 1A Exposed Floor Mass,  ! Name
  ,                                       ! Type
  Construction,                           ! Line Item Type
  AEDG SHC Nonres 1A Exposed Floor Mass,  ! Item Name
  ,                                       ! Object End Use Key
  ,                                       ! Quantity {dimensionless}
  0,                                      ! Material Cost {$}
  CostPerArea;                            ! Material Cost Units

