
OS:Version,
  {41af2220-a279-4084-a939-77404622eb73}, ! Handle
  0.9.3;                                  ! Version Identifier

OS:WindowMaterial:Glazing,
  {17ef1acc-3a02-41e1-b598-2a91fbcc66f9}, ! Handle
  Theoretical Glass [76],                 ! Name
  SpectralAverage,                        ! Optical Data Type
  ,                                       ! Window Glass Spectral Data Set Name
  0.003,                                  ! Thickness {m}
  0.376276,                               ! Solar Transmittance at Normal Incidence
  0.573724,                               ! Front Side Solar Reflectance at Normal Incidence
  0.573724,                               ! Back Side Solar Reflectance at Normal Incidence
  0.41104,                                ! Visible Transmittance at Normal Incidence
  0.53896,                                ! Front Side Visible Reflectance at Normal Incidence
  0.53896,                                ! Back Side Visible Reflectance at Normal Incidence
  0,                                      ! Infrared Transmittance at Normal Incidence
  0.999,                                  ! Front Side Infrared Hemispherical Emissivity
  0.999,                                  ! Back Side Infrared Hemispherical Emissivity
  72.7123;                                ! Conductivity {W/m-K}

OS:Construction,
  {190bc449-6ed2-4e58-9c73-32d7022bfbad}, ! Handle
  90.1-2001 Res B9 Skylight without Curb, ! Name
  ,                                       ! Surface Rendering Name
  {17ef1acc-3a02-41e1-b598-2a91fbcc66f9}; ! Layer 1

OS:ComponentCost:LineItem,
  {7504a5d5-37ef-46d2-a8ab-a1e482535db4}, ! Handle
  90.1-2001 Res B9 Skylight without Curb, ! Name
  ,                                       ! Type
  Construction,                           ! Line Item Type
  90.1-2001 Res B9 Skylight without Curb, ! Item Name
  ,                                       ! Object End Use Key
  ,                                       ! Quantity {dimensionless}
  527.515,                                ! Material Cost {$}
  CostPerArea;                            ! Material Cost Units

