
OS:Version,
  {858f39fd-0dc8-44f2-a67c-3ae6bd2d39f8}, ! Handle
  0.9.3;                                  ! Version Identifier

OS:Construction,
  {5d43e0cd-1d4f-4f7a-a45c-bf351c8d8e30}, ! Handle
  AEDG K12 Nonres 6B Exposed Floor Mass,  ! Name
  ,                                       ! Surface Rendering Name
  {edff29b3-efcd-490f-912e-0631f306f60a}, ! Layer 1
  {20771734-50a0-4717-b924-c197e23a3164}, ! Layer 2
  {cb9ef9ec-30d0-40b6-a8c0-8b8fa1a962ac}; ! Layer 3

OS:Material,
  {edff29b3-efcd-490f-912e-0631f306f60a}, ! Handle
  Floor Insulation [2],                   ! Name
  MediumRough,                            ! Roughness
  0.0635689,                              ! Thickness {m}
  0.045,                                  ! Conductivity {W/m-K}
  265,                                    ! Density {kg/m3}
  836.8,                                  ! Specific Heat {J/kg-K}
  0.9,                                    ! Thermal Absorptance
  0.7,                                    ! Solar Absorptance
  0.7;                                    ! Visible Absorptance

OS:Material,
  {20771734-50a0-4717-b924-c197e23a3164}, ! Handle
  MAT-CC05 8 HW CONCRETE,                 ! Name
  Rough,                                  ! Roughness
  0.20321,                                ! Thickness {m}
  1.311,                                  ! Conductivity {W/m-K}
  2240,                                   ! Density {kg/m3}
  836.8,                                  ! Specific Heat {J/kg-K}
  0.9,                                    ! Thermal Absorptance
  0.7,                                    ! Solar Absorptance
  0.7;                                    ! Visible Absorptance

OS:Material:NoMass,
  {cb9ef9ec-30d0-40b6-a8c0-8b8fa1a962ac}, ! Handle
  CP02 CARPET PAD EF,                     ! Name
  VeryRough,                              ! Roughness
  0.21648,                                ! Thermal Resistance {m2-K/W}
  0.9,                                    ! Thermal Absorptance
  0.7,                                    ! Solar Absorptance
  0.8;                                    ! Visible Absorptance

OS:ComponentCost:LineItem,
  {263e6ab9-4459-4451-b38d-87360cd5b529}, ! Handle
  AEDG K12 Nonres 6B Exposed Floor Mass,  ! Name
  ,                                       ! Type
  Construction,                           ! Line Item Type
  AEDG K12 Nonres 6B Exposed Floor Mass,  ! Item Name
  ,                                       ! Object End Use Key
  ,                                       ! Quantity {dimensionless}
  49.612,                                 ! Material Cost {$}
  CostPerArea;                            ! Material Cost Units

