
OS:Version,
  {89348965-2151-4128-8341-ccd10e7f47d6}, ! Handle
  0.9.3;                                  ! Version Identifier

OS:Material,
  {df3a7ad4-7fe9-4408-9669-4d6a11f2a6f9}, ! Handle
  Wood Siding,                            ! Name
  MediumSmooth,                           ! Roughness
  0.01,                                   ! Thickness {m}
  0.11,                                   ! Conductivity {W/m-K}
  544.62,                                 ! Density {kg/m3}
  1210,                                   ! Specific Heat {J/kg-K}
  0.9,                                    ! Thermal Absorptance
  0.78,                                   ! Solar Absorptance
  0.78;                                   ! Visible Absorptance

OS:Material,
  {09dc01c0-5595-40d0-a9cc-9afdfe1f9c4c}, ! Handle
  1/2IN Gypsum,                           ! Name
  Smooth,                                 ! Roughness
  0.01271,                                ! Thickness {m}
  0.16,                                   ! Conductivity {W/m-K}
  784.9,                                  ! Density {kg/m3}
  830,                                    ! Specific Heat {J/kg-K}
  0.9,                                    ! Thermal Absorptance
  0.92,                                   ! Solar Absorptance
  0.92;                                   ! Visible Absorptance

OS:Material,
  {a49d09f6-1930-40d0-9e72-692aef9a0db8}, ! Handle
  Wall Insulation [2],                    ! Name
  MediumRough,                            ! Roughness
  0.0746874,                              ! Thickness {m}
  0.045,                                  ! Conductivity {W/m-K}
  265,                                    ! Density {kg/m3}
  836.8,                                  ! Specific Heat {J/kg-K}
  0.9,                                    ! Thermal Absorptance
  0.7,                                    ! Solar Absorptance
  0.7;                                    ! Visible Absorptance

OS:ComponentCost:LineItem,
  {78a06b38-8705-442e-af51-5ce034868eae}, ! Handle
  90.1-2001 Nonres B22 Ext Wall Wood-Framed and Other, ! Name
  ,                                       ! Type
  Construction,                           ! Line Item Type
  90.1-2001 Nonres B22 Ext Wall Wood-Framed and Other, ! Item Name
  ,                                       ! Object End Use Key
  ,                                       ! Quantity {dimensionless}
  73.056,                                 ! Material Cost {$}
  CostPerArea;                            ! Material Cost Units

OS:Construction,
  {53e4a50f-f762-49e5-b425-74bd3813f47c}, ! Handle
  90.1-2001 Nonres B22 Ext Wall Wood-Framed and Other, ! Name
  ,                                       ! Surface Rendering Name
  {df3a7ad4-7fe9-4408-9669-4d6a11f2a6f9}, ! Layer 1
  {a49d09f6-1930-40d0-9e72-692aef9a0db8}, ! Layer 2
  {09dc01c0-5595-40d0-a9cc-9afdfe1f9c4c}; ! Layer 3

