
OS:Version,
  {90ba2241-6cd6-43f3-b513-dbce6dda1e62}, ! Handle
  0.9.3;                                  ! Version Identifier

OS:Construction,
  {34fc11f8-2351-4e88-9f1e-8843dc8de6ab}, ! Handle
  90.1-2001 Res B14 Int Wall,             ! Name
  ,                                       ! Surface Rendering Name
  {6e0648e4-2bb2-4518-8b61-838aed0c6146}, ! Layer 1
  {6e0648e4-2bb2-4518-8b61-838aed0c6146}; ! Layer 2

OS:Material,
  {6e0648e4-2bb2-4518-8b61-838aed0c6146}, ! Handle
  GP01 1/2 GYPSUM,                        ! Name
  Smooth,                                 ! Roughness
  0.01271,                                ! Thickness {m}
  0.16,                                   ! Conductivity {W/m-K}
  800,                                    ! Density {kg/m3}
  1090,                                   ! Specific Heat {J/kg-K}
  0.9,                                    ! Thermal Absorptance
  0.7,                                    ! Solar Absorptance
  0.5;                                    ! Visible Absorptance

OS:ComponentCost:LineItem,
  {9fe9e62e-38cd-471f-bbbb-45cf20ad17ee}, ! Handle
  90.1-2001 Res B14 Int Wall,             ! Name
  ,                                       ! Type
  Construction,                           ! Line Item Type
  90.1-2001 Res B14 Int Wall,             ! Item Name
  ,                                       ! Object End Use Key
  ,                                       ! Quantity {dimensionless}
  0,                                      ! Material Cost {$}
  CostPerArea;                            ! Material Cost Units

OS:Material,
  {1d150ee1-053f-48a5-9581-a2a9f86d4b12}, ! Handle
  GP01 1/2 GYPSUM 1,                      ! Name
  Smooth,                                 ! Roughness
  0.01271,                                ! Thickness {m}
  0.16,                                   ! Conductivity {W/m-K}
  800,                                    ! Density {kg/m3}
  1090,                                   ! Specific Heat {J/kg-K}
  0.9,                                    ! Thermal Absorptance
  0.7,                                    ! Solar Absorptance
  0.5;                                    ! Visible Absorptance

