
OS:Version,
  {03e2b650-14dd-41c2-8d7a-eb2854904d6d}, ! Handle
  0.9.3;                                  ! Version Identifier

OS:Construction,
  {213fb9be-a770-44d3-9777-1c8fcf66358d}, ! Handle
  90.1-2001 Res B14 Ext Wall Mass,        ! Name
  ,                                       ! Surface Rendering Name
  {448d0519-e875-473b-b85b-b4d6e4a9f8ac}, ! Layer 1
  {57196d74-9663-4340-a0ad-9c5fe2ac7d14}, ! Layer 2
  {59516b92-861f-482c-ad14-95ca9e8fb580}, ! Layer 3
  {ae200b73-ad20-475c-8183-f810108d2902}; ! Layer 4

OS:Material,
  {448d0519-e875-473b-b85b-b4d6e4a9f8ac}, ! Handle
  1IN Stucco,                             ! Name
  Smooth,                                 ! Roughness
  0.0253,                                 ! Thickness {m}
  0.6918,                                 ! Conductivity {W/m-K}
  1858,                                   ! Density {kg/m3}
  837,                                    ! Specific Heat {J/kg-K}
  0.9,                                    ! Thermal Absorptance
  0.92,                                   ! Solar Absorptance
  0.92;                                   ! Visible Absorptance

OS:Material,
  {57196d74-9663-4340-a0ad-9c5fe2ac7d14}, ! Handle
  8IN Concrete HW,                        ! Name
  MediumRough,                            ! Roughness
  0.2033,                                 ! Thickness {m}
  1.7296,                                 ! Conductivity {W/m-K}
  2243,                                   ! Density {kg/m3}
  837,                                    ! Specific Heat {J/kg-K}
  0.9,                                    ! Thermal Absorptance
  0.65,                                   ! Solar Absorptance
  0.65;                                   ! Visible Absorptance

OS:Material,
  {59516b92-861f-482c-ad14-95ca9e8fb580}, ! Handle
  Wall Insulation [7],                    ! Name
  MediumRough,                            ! Roughness
  0.056577,                               ! Thickness {m}
  0.0432,                                 ! Conductivity {W/m-K}
  91,                                     ! Density {kg/m3}
  837,                                    ! Specific Heat {J/kg-K}
  0.9,                                    ! Thermal Absorptance
  0.5,                                    ! Solar Absorptance
  0.5;                                    ! Visible Absorptance

OS:Material,
  {ae200b73-ad20-475c-8183-f810108d2902}, ! Handle
  1/2IN Gypsum,                           ! Name
  Smooth,                                 ! Roughness
  0.01271,                                ! Thickness {m}
  0.16,                                   ! Conductivity {W/m-K}
  784.9,                                  ! Density {kg/m3}
  830,                                    ! Specific Heat {J/kg-K}
  0.9,                                    ! Thermal Absorptance
  0.92,                                   ! Solar Absorptance
  0.92;                                   ! Visible Absorptance

OS:ComponentCost:LineItem,
  {12532118-1553-45d1-b307-0968ae4c51c3}, ! Handle
  90.1-2001 Res B14 Ext Wall Mass,        ! Name
  ,                                       ! Type
  Construction,                           ! Line Item Type
  90.1-2001 Res B14 Ext Wall Mass,        ! Item Name
  ,                                       ! Object End Use Key
  ,                                       ! Quantity {dimensionless}
  63.663,                                 ! Material Cost {$}
  CostPerArea;                            ! Material Cost Units

