
OS:Version,
  {a0dfb7a0-e87b-4992-aa49-9c37ea030036}, ! Handle
  0.9.3;                                  ! Version Identifier

OS:Construction,
  {d89d287b-8f85-4eac-a86b-aadb8d07f74b}, ! Handle
  90.1-1999 Nonres B3 Ext Slab Unheated - 4in Slab without Carpet, ! Name
  ,                                       ! Surface Rendering Name
  {44267ef2-226b-412a-beee-ad192566c606}; ! Layer 1

OS:Material,
  {44267ef2-226b-412a-beee-ad192566c606}, ! Handle
  MAT-CC05 4 HW CONCRETE,                 ! Name
  Rough,                                  ! Roughness
  0.1016,                                 ! Thickness {m}
  1.311,                                  ! Conductivity {W/m-K}
  2240,                                   ! Density {kg/m3}
  836.8,                                  ! Specific Heat {J/kg-K}
  0.9,                                    ! Thermal Absorptance
  0.7,                                    ! Solar Absorptance
  0.7;                                    ! Visible Absorptance

OS:ComponentCost:LineItem,
  {2c149039-7d08-47e1-8dc0-cafb16797f83}, ! Handle
  90.1-1999 Nonres B3 Ext Slab Unheated - 4in Slab without Carpet, ! Name
  ,                                       ! Type
  Construction,                           ! Line Item Type
  90.1-1999 Nonres B3 Ext Slab Unheated - 4in Slab without Carpet, ! Item Name
  ,                                       ! Object End Use Key
  ,                                       ! Quantity {dimensionless}
  45.52,                                  ! Material Cost {$}
  CostPerArea;                            ! Material Cost Units

OS:ComponentData,
  {ca10556f-0f40-4652-bee2-9a1e5a9bf405}, ! Handle
  Component Data 1,                       ! Name
  {2b8853f4-3784-4067-82ba-ec2791109580}, ! UUID
  {76cc9f27-a708-4510-8492-1cb3b1b22c50}, ! Version UUID
  1363981048,                             ! Creation Timestamp
  1363981048,                             ! Version Timestamp
  {d89d287b-8f85-4eac-a86b-aadb8d07f74b}, ! Name of Object 1
  {44267ef2-226b-412a-beee-ad192566c606}, ! Name of Object 2
  {2c149039-7d08-47e1-8dc0-cafb16797f83}; ! Name of Object 3

