
OS:Version,
  {f4cc7958-378d-4a36-8b94-2d3d8f2a6210}, ! Handle
  0.9.3;                                  ! Version Identifier

OS:ComponentCost:LineItem,
  {b8303ec1-2a6a-440b-acb9-c6277e2af946}, ! Handle
  90.1 Windows Window Fixed 3431 Brk-Clr-Ins-V32-Ins-Clr, ! Name
  ,                                       ! Type
  Construction,                           ! Line Item Type
  90.1 Windows Window Fixed 3431 Brk-Clr-Ins-V32-Ins-Clr, ! Item Name
  ,                                       ! Object End Use Key
  ,                                       ! Quantity {dimensionless}
  0,                                      ! Material Cost {$}
  CostPerArea;                            ! Material Cost Units

OS:Construction,
  {7c303b96-bb15-4319-a00a-7d253a55f632}, ! Handle
  90.1 Windows Window Fixed 3431 Brk-Clr-Ins-V32-Ins-Clr, ! Name
  ,                                       ! Surface Rendering Name
  {92c045d6-16d0-4aff-ab12-ba27d8227450}; ! Layer 1

OS:WindowMaterial:Glazing,
  {92c045d6-16d0-4aff-ab12-ba27d8227450}, ! Handle
  Theoretical Glass [540],                ! Name
  SpectralAverage,                        ! Optical Data Type
  ,                                       ! Window Glass Spectral Data Set Name
  0.003,                                  ! Thickness {m}
  0.206817,                               ! Solar Transmittance at Normal Incidence
  0.743183,                               ! Front Side Solar Reflectance at Normal Incidence
  0.743183,                               ! Back Side Solar Reflectance at Normal Incidence
  0.251212,                               ! Visible Transmittance at Normal Incidence
  0.698788,                               ! Front Side Visible Reflectance at Normal Incidence
  0.698788,                               ! Back Side Visible Reflectance at Normal Incidence
  0,                                      ! Infrared Transmittance at Normal Incidence
  0.9,                                    ! Front Side Infrared Hemispherical Emissivity
  0.9,                                    ! Back Side Infrared Hemispherical Emissivity
  0.00810606;                             ! Conductivity {W/m-K}

