
OS:Version,
  {fa7caffa-8595-456f-b43b-7134a72f2b74}, ! Handle
  0.9.3;                                  ! Version Identifier

OS:Construction,
  {7d189002-0762-48b7-b419-0ae4061d071b}, ! Handle
  90.1 Windows Window Fixed 3431 Brk-Clr-Ins-V32-Ins-Clr, ! Name
  ,                                       ! Surface Rendering Name
  {d2480a28-bfde-4cb2-b5b9-ecaea5ad453b}; ! Layer 1

OS:WindowMaterial:Glazing,
  {d2480a28-bfde-4cb2-b5b9-ecaea5ad453b}, ! Handle
  Theoretical Glass [540],                ! Name
  SpectralAverage,                        ! Optical Data Type
  ,                                       ! Window Glass Spectral Data Set Name
  0.003,                                  ! Thickness {m}
  0.206817,                               ! Solar Transmittance at Normal Incidence
  0.743183,                               ! Front Side Solar Reflectance at Normal Incidence
  0.743183,                               ! Back Side Solar Reflectance at Normal Incidence
  0.251212,                               ! Visible Transmittance at Normal Incidence
  0.698788,                               ! Front Side Visible Reflectance at Normal Incidence
  0.698788,                               ! Back Side Visible Reflectance at Normal Incidence
  0,                                      ! Infrared Transmittance at Normal Incidence
  0.9,                                    ! Front Side Infrared Hemispherical Emissivity
  0.9,                                    ! Back Side Infrared Hemispherical Emissivity
  0.00810606;                             ! Conductivity {W/m-K}

OS:ComponentCost:LineItem,
  {fa9dd926-12ec-4856-a74b-be94c0173ef7}, ! Handle
  90.1 Windows Window Fixed 3431 Brk-Clr-Ins-V32-Ins-Clr, ! Name
  ,                                       ! Type
  Construction,                           ! Line Item Type
  90.1 Windows Window Fixed 3431 Brk-Clr-Ins-V32-Ins-Clr, ! Item Name
  ,                                       ! Object End Use Key
  ,                                       ! Quantity {dimensionless}
  0,                                      ! Material Cost {$}
  CostPerArea;                            ! Material Cost Units

OS:ComponentData,
  {cfb463e6-18d3-408d-8767-539bc1b239c0}, ! Handle
  Component Data 1,                       ! Name
  {217f3ba8-4400-4819-a034-a9cae7a1fd2a}, ! UUID
  {662215bb-910e-46d6-ab53-04d6c8542f6f}, ! Version UUID
  1363981028,                             ! Creation Timestamp
  1363981028,                             ! Version Timestamp
  {7d189002-0762-48b7-b419-0ae4061d071b}, ! Name of Object 1
  {d2480a28-bfde-4cb2-b5b9-ecaea5ad453b}, ! Name of Object 2
  {fa9dd926-12ec-4856-a74b-be94c0173ef7}; ! Name of Object 3

