
OS:Version,
  {7620d42b-8ef5-4b82-9a32-c43d2036316a}, ! Handle
  0.9.3;                                  ! Version Identifier

OS:ComponentCost:LineItem,
  {07a8583a-34d3-46c9-8f71-62fe19a29a63}, ! Handle
  90.1-1999 Nonres B21 Skylight without Curb, ! Name
  ,                                       ! Type
  Construction,                           ! Line Item Type
  90.1-1999 Nonres B21 Skylight without Curb, ! Item Name
  ,                                       ! Object End Use Key
  ,                                       ! Quantity {dimensionless}
  524.932,                                ! Material Cost {$}
  CostPerArea;                            ! Material Cost Units

OS:Construction,
  {00a5cd9c-54fd-4bf6-878b-78ac434eaeac}, ! Handle
  90.1-1999 Nonres B21 Skylight without Curb, ! Name
  ,                                       ! Surface Rendering Name
  {7ad6789c-1e88-456e-9b13-81daaa711be1}; ! Layer 1

OS:WindowMaterial:Glazing,
  {7ad6789c-1e88-456e-9b13-81daaa711be1}, ! Handle
  Theoretical Glass [45],                 ! Name
  SpectralAverage,                        ! Optical Data Type
  ,                                       ! Window Glass Spectral Data Set Name
  0.003,                                  ! Thickness {m}
  0.482092,                               ! Solar Transmittance at Normal Incidence
  0.467908,                               ! Front Side Solar Reflectance at Normal Incidence
  0.467908,                               ! Back Side Solar Reflectance at Normal Incidence
  0.529698,                               ! Visible Transmittance at Normal Incidence
  0.420302,                               ! Front Side Visible Reflectance at Normal Incidence
  0.420302,                               ! Back Side Visible Reflectance at Normal Incidence
  0,                                      ! Infrared Transmittance at Normal Incidence
  0.9,                                    ! Front Side Infrared Hemispherical Emissivity
  0.9,                                    ! Back Side Infrared Hemispherical Emissivity
  0.0205762;                              ! Conductivity {W/m-K}

