
OS:Version,
  {92f60391-527c-40c5-b876-055ad11f8fc0}, ! Handle
  0.9.3;                                  ! Version Identifier

OS:ComponentCost:LineItem,
  {bf2290b0-7db4-4d7f-8309-81c4ae260d7e}, ! Handle
  90.1-1999 Res B13 Ext Wall Metal Building, ! Name
  ,                                       ! Type
  Construction,                           ! Line Item Type
  90.1-1999 Res B13 Ext Wall Metal Building, ! Item Name
  ,                                       ! Object End Use Key
  ,                                       ! Quantity {dimensionless}
  98.78,                                  ! Material Cost {$}
  CostPerArea;                            ! Material Cost Units

OS:Material,
  {4a3c1936-8962-4b0e-8be1-bd0af2fd225c}, ! Handle
  Wall Insulation,                        ! Name
  MediumRough,                            ! Roughness
  0.0598725,                              ! Thickness {m}
  0.045,                                  ! Conductivity {W/m-K}
  265,                                    ! Density {kg/m3}
  836.8,                                  ! Specific Heat {J/kg-K}
  0.9,                                    ! Thermal Absorptance
  0.7,                                    ! Solar Absorptance
  0.7;                                    ! Visible Absorptance

OS:Material,
  {9252b84d-1d5a-4f17-8dce-148b15e417c3}, ! Handle
  Metal Siding,                           ! Name
  Smooth,                                 ! Roughness
  0.0015,                                 ! Thickness {m}
  44.96,                                  ! Conductivity {W/m-K}
  7688.86,                                ! Density {kg/m3}
  410,                                    ! Specific Heat {J/kg-K}
  0.9,                                    ! Thermal Absorptance
  0.2,                                    ! Solar Absorptance
  0.2;                                    ! Visible Absorptance

OS:Construction,
  {afa2deb0-b0e8-46c5-88d7-90b27de222c0}, ! Handle
  90.1-1999 Res B13 Ext Wall Metal Building, ! Name
  ,                                       ! Surface Rendering Name
  {9252b84d-1d5a-4f17-8dce-148b15e417c3}, ! Layer 1
  {4a3c1936-8962-4b0e-8be1-bd0af2fd225c}, ! Layer 2
  {d0b59a3e-dced-49a3-983b-2f7ba6ec8253}; ! Layer 3

OS:Material,
  {d0b59a3e-dced-49a3-983b-2f7ba6ec8253}, ! Handle
  1/2IN Gypsum,                           ! Name
  Smooth,                                 ! Roughness
  0.01271,                                ! Thickness {m}
  0.16,                                   ! Conductivity {W/m-K}
  784.9,                                  ! Density {kg/m3}
  830,                                    ! Specific Heat {J/kg-K}
  0.9,                                    ! Thermal Absorptance
  0.92,                                   ! Solar Absorptance
  0.92;                                   ! Visible Absorptance

