
OS:Version,
  {9493ffe8-4658-4ab3-98bd-8cff7fbc230b}, ! Handle
  0.9.3;                                  ! Version Identifier

OS:Material:NoMass,
  {e7ac7961-180e-4591-82bc-3f49a4069942}, ! Handle
  MAT-SHEATH,                             ! Name
  Rough,                                  ! Roughness
  0.36256,                                ! Thermal Resistance {m2-K/W}
  0.9,                                    ! Thermal Absorptance
  0.7,                                    ! Solar Absorptance
  0.7;                                    ! Visible Absorptance

OS:Material,
  {9ec79905-698e-4a72-9707-73ce5e652153}, ! Handle
  1/2IN Gypsum,                           ! Name
  Smooth,                                 ! Roughness
  0.01271,                                ! Thickness {m}
  0.16,                                   ! Conductivity {W/m-K}
  784.9,                                  ! Density {kg/m3}
  830,                                    ! Specific Heat {J/kg-K}
  0.9,                                    ! Thermal Absorptance
  0.92,                                   ! Solar Absorptance
  0.92;                                   ! Visible Absorptance

OS:Material,
  {cbbed4f4-dda2-44d9-954a-1da7618dfb3a}, ! Handle
  Wall Insulation [1],                    ! Name
  MediumRough,                            ! Roughness
  0.0373223,                              ! Thickness {m}
  0.045,                                  ! Conductivity {W/m-K}
  265,                                    ! Density {kg/m3}
  836.8,                                  ! Specific Heat {J/kg-K}
  0.9,                                    ! Thermal Absorptance
  0.7,                                    ! Solar Absorptance
  0.7;                                    ! Visible Absorptance

OS:ComponentCost:LineItem,
  {a6cff1df-ca0a-45fb-8978-d421999ebbe6}, ! Handle
  AEDG-SmOffice 2A Ext Wall Steel-Framed, ! Name
  ,                                       ! Type
  Construction,                           ! Line Item Type
  AEDG-SmOffice 2A Ext Wall Steel-Framed, ! Item Name
  ,                                       ! Object End Use Key
  ,                                       ! Quantity {dimensionless}
  87.08,                                  ! Material Cost {$}
  CostPerArea;                            ! Material Cost Units

OS:Construction,
  {eb7e1875-97ab-4e1d-809c-e3aaa7871f74}, ! Handle
  AEDG-SmOffice 2A Ext Wall Steel-Framed, ! Name
  ,                                       ! Surface Rendering Name
  {e7ac7961-180e-4591-82bc-3f49a4069942}, ! Layer 1
  {cbbed4f4-dda2-44d9-954a-1da7618dfb3a}, ! Layer 2
  {9ec79905-698e-4a72-9707-73ce5e652153}; ! Layer 3

