
OS:Version,
  {9e775554-9ee2-4b24-9521-9a689dd62a57}, ! Handle
  0.9.3;                                  ! Version Identifier

OS:Construction,
  {8a24dc4f-04f2-40b0-8503-dba1faf2c192}, ! Handle
  90.1-1999 Nonres B24 Roof IEAD,         ! Name
  ,                                       ! Surface Rendering Name
  {688e120e-1446-4a70-816b-eab01e43ceae}, ! Layer 1
  {94f140bb-4be6-4876-87a3-8f78dca43c5f}, ! Layer 2
  {5515af35-2c0e-47c0-b76d-8b7a89cbb9a4}; ! Layer 3

OS:Material,
  {688e120e-1446-4a70-816b-eab01e43ceae}, ! Handle
  Roof Membrane,                          ! Name
  VeryRough,                              ! Roughness
  0.0095,                                 ! Thickness {m}
  0.16,                                   ! Conductivity {W/m-K}
  1121.29,                                ! Density {kg/m3}
  1460,                                   ! Specific Heat {J/kg-K}
  0.9,                                    ! Thermal Absorptance
  0.7,                                    ! Solar Absorptance
  0.7;                                    ! Visible Absorptance

OS:Material,
  {94f140bb-4be6-4876-87a3-8f78dca43c5f}, ! Handle
  Roof Insulation [7],                    ! Name
  MediumRough,                            ! Roughness
  0.167563,                               ! Thickness {m}
  0.049,                                  ! Conductivity {W/m-K}
  265,                                    ! Density {kg/m3}
  836.8,                                  ! Specific Heat {J/kg-K}
  0.9,                                    ! Thermal Absorptance
  0.7,                                    ! Solar Absorptance
  0.7;                                    ! Visible Absorptance

OS:Material,
  {5515af35-2c0e-47c0-b76d-8b7a89cbb9a4}, ! Handle
  Metal Decking,                          ! Name
  MediumSmooth,                           ! Roughness
  0.001524,                               ! Thickness {m}
  45.006,                                 ! Conductivity {W/m-K}
  7680,                                   ! Density {kg/m3}
  418.4,                                  ! Specific Heat {J/kg-K}
  0.9,                                    ! Thermal Absorptance
  0.7,                                    ! Solar Absorptance
  0.3;                                    ! Visible Absorptance

OS:ComponentCost:LineItem,
  {ac673505-e941-49a2-9909-bf77c799ad86}, ! Handle
  90.1-1999 Nonres B24 Roof IEAD,         ! Name
  ,                                       ! Type
  Construction,                           ! Line Item Type
  90.1-1999 Nonres B24 Roof IEAD,         ! Item Name
  ,                                       ! Object End Use Key
  ,                                       ! Quantity {dimensionless}
  52.896,                                 ! Material Cost {$}
  CostPerArea;                            ! Material Cost Units

OS:ComponentData,
  {bd9bd280-aaa8-4ae6-b1e5-a196df1e264e}, ! Handle
  Component Data 1,                       ! Name
  {990be275-ab95-41fd-b2fc-452515708759}, ! UUID
  {6483cb72-29bd-4a9c-860d-f0bb77fd3d37}, ! Version UUID
  1363981146,                             ! Creation Timestamp
  1363981146,                             ! Version Timestamp
  {8a24dc4f-04f2-40b0-8503-dba1faf2c192}, ! Name of Object 1
  {688e120e-1446-4a70-816b-eab01e43ceae}, ! Name of Object 2
  {94f140bb-4be6-4876-87a3-8f78dca43c5f}, ! Name of Object 3
  {5515af35-2c0e-47c0-b76d-8b7a89cbb9a4}, ! Name of Object 4
  {ac673505-e941-49a2-9909-bf77c799ad86}; ! Name of Object 5

