
OS:Version,
  {679357d8-54d1-4d79-af69-cf9e316bb634}, ! Handle
  0.9.3;                                  ! Version Identifier

OS:Construction,
  {5d8b0390-25fe-40cf-8f16-ee73d0f379ff}, ! Handle
  90.1-2004 Nonres 3C Ext Wall Steel-Framed, ! Name
  ,                                       ! Surface Rendering Name
  {ae73fee6-4224-418d-ab1a-3b5cc3e3c147}, ! Layer 1
  {00f9e63c-9e6b-4bd9-93d7-d71fb5f69b57}, ! Layer 2
  {a1b6a075-0a6e-433f-b323-1d26b8c6cea2}; ! Layer 3

OS:Material:NoMass,
  {ae73fee6-4224-418d-ab1a-3b5cc3e3c147}, ! Handle
  MAT-SHEATH,                             ! Name
  Rough,                                  ! Roughness
  0.36256,                                ! Thermal Resistance {m2-K/W}
  0.9,                                    ! Thermal Absorptance
  0.7,                                    ! Solar Absorptance
  0.7;                                    ! Visible Absorptance

OS:Material,
  {00f9e63c-9e6b-4bd9-93d7-d71fb5f69b57}, ! Handle
  Wall Insulation [1],                    ! Name
  MediumRough,                            ! Roughness
  0.0373223,                              ! Thickness {m}
  0.045,                                  ! Conductivity {W/m-K}
  265,                                    ! Density {kg/m3}
  836.8,                                  ! Specific Heat {J/kg-K}
  0.9,                                    ! Thermal Absorptance
  0.7,                                    ! Solar Absorptance
  0.7;                                    ! Visible Absorptance

OS:Material,
  {a1b6a075-0a6e-433f-b323-1d26b8c6cea2}, ! Handle
  1/2IN Gypsum,                           ! Name
  Smooth,                                 ! Roughness
  0.01271,                                ! Thickness {m}
  0.16,                                   ! Conductivity {W/m-K}
  784.9,                                  ! Density {kg/m3}
  830,                                    ! Specific Heat {J/kg-K}
  0.9,                                    ! Thermal Absorptance
  0.92,                                   ! Solar Absorptance
  0.92;                                   ! Visible Absorptance

OS:ComponentCost:LineItem,
  {eda593f7-72cd-4da2-a92a-ecaa4c722b90}, ! Handle
  90.1-2004 Nonres 3C Ext Wall Steel-Framed, ! Name
  ,                                       ! Type
  Construction,                           ! Line Item Type
  90.1-2004 Nonres 3C Ext Wall Steel-Framed, ! Item Name
  ,                                       ! Object End Use Key
  ,                                       ! Quantity {dimensionless}
  87.08,                                  ! Material Cost {$}
  CostPerArea;                            ! Material Cost Units

OS:ComponentData,
  {ded81818-8143-4524-9bac-74a3121ccceb}, ! Handle
  Component Data 1,                       ! Name
  {2389893c-42a2-4fa3-96ae-0f23c4b22357}, ! UUID
  {5b9fcf35-0e30-409d-b2d9-669ad3d63fd3}, ! Version UUID
  1363981655,                             ! Creation Timestamp
  1363981655,                             ! Version Timestamp
  {5d8b0390-25fe-40cf-8f16-ee73d0f379ff}, ! Name of Object 1
  {ae73fee6-4224-418d-ab1a-3b5cc3e3c147}, ! Name of Object 2
  {00f9e63c-9e6b-4bd9-93d7-d71fb5f69b57}, ! Name of Object 3
  {a1b6a075-0a6e-433f-b323-1d26b8c6cea2}, ! Name of Object 4
  {eda593f7-72cd-4da2-a92a-ecaa4c722b90}; ! Name of Object 5

