
OS:Version,
  {0f770bfa-b135-4aa7-b55f-b108ac3265db}, ! Handle
  0.9.3;                                  ! Version Identifier

OS:WindowMaterial:Glazing,
  {7f4b994e-4700-42c7-97e6-6ad38f412600}, ! Handle
  Theoretical Glass [87],                 ! Name
  SpectralAverage,                        ! Optical Data Type
  ,                                       ! Window Glass Spectral Data Set Name
  0.003,                                  ! Thickness {m}
  0.343048,                               ! Solar Transmittance at Normal Incidence
  0.606952,                               ! Front Side Solar Reflectance at Normal Incidence
  0.606952,                               ! Back Side Solar Reflectance at Normal Incidence
  0.360158,                               ! Visible Transmittance at Normal Incidence
  0.589842,                               ! Front Side Visible Reflectance at Normal Incidence
  0.589842,                               ! Back Side Visible Reflectance at Normal Incidence
  0,                                      ! Infrared Transmittance at Normal Incidence
  0.9,                                    ! Front Side Infrared Hemispherical Emissivity
  0.9,                                    ! Back Side Infrared Hemispherical Emissivity
  0.0324872;                              ! Conductivity {W/m-K}

OS:ComponentCost:LineItem,
  {5b069a90-9509-48ef-bdad-b3d8f2cbf96f}, ! Handle
  90.1-2001 Res B14 Skylight without Curb, ! Name
  ,                                       ! Type
  Construction,                           ! Line Item Type
  90.1-2001 Res B14 Skylight without Curb, ! Item Name
  ,                                       ! Object End Use Key
  ,                                       ! Quantity {dimensionless}
  514.818,                                ! Material Cost {$}
  CostPerArea;                            ! Material Cost Units

OS:Construction,
  {3a61e6ac-8bc3-475a-bb45-5447d95f9dd6}, ! Handle
  90.1-2001 Res B14 Skylight without Curb, ! Name
  ,                                       ! Surface Rendering Name
  {7f4b994e-4700-42c7-97e6-6ad38f412600}; ! Layer 1

