
OS:Version,
  {58770fff-f5bf-4ad6-afa1-5bacf9afbe70}, !- Handle
  1.1.0;                                  !- Version Identifier

OS:Construction,
  {9b9d99ec-576d-4c99-ba22-5f9ffc5e3cfc}, !- Handle
  Sgl Grey 6mm,                           !- Name
  ,                                       !- Surface Rendering Name
  {3d025ec9-5e88-4775-a8bb-729f68ecccf4}; !- Layer 1

OS:WindowMaterial:Glazing,
  {3d025ec9-5e88-4775-a8bb-729f68ecccf4}, !- Handle
  GREY 6MM,                               !- Name
  SpectralAverage,                        !- Optical Data Type
  ,                                       !- Window Glass Spectral Data Set Name
  0.006,                                  !- Thickness {m}
  0.455,                                  !- Solar Transmittance at Normal Incidence
  0.053,                                  !- Front Side Solar Reflectance at Normal Incidence
  0.053,                                  !- Back Side Solar Reflectance at Normal Incidence
  0.431,                                  !- Visible Transmittance at Normal Incidence
  0.052,                                  !- Front Side Visible Reflectance at Normal Incidence
  0.052,                                  !- Back Side Visible Reflectance at Normal Incidence
  0,                                      !- Infrared Transmittance at Normal Incidence
  0.84,                                   !- Front Side Infrared Hemispherical Emissivity
  0.84,                                   !- Back Side Infrared Hemispherical Emissivity
  0.9;                                    !- Conductivity {W/m-K}

