
OS:Version,
  {82ccd9f8-7af6-4249-af0a-9508c4f0bdba}, !- Handle
  1.1.0;                                  !- Version Identifier

OS:Construction,
  {9a37ca1e-de65-44aa-a732-668d47169c68}, !- Handle
  Sgl Grey 6mm,                           !- Name
  ,                                       !- Surface Rendering Name
  {cb2625fa-1462-444b-9310-283923eb3d0d}; !- Layer 1

OS:WindowMaterial:Glazing,
  {cb2625fa-1462-444b-9310-283923eb3d0d}, !- Handle
  GREY 6MM,                               !- Name
  SpectralAverage,                        !- Optical Data Type
  ,                                       !- Window Glass Spectral Data Set Name
  0.006,                                  !- Thickness {m}
  0.455,                                  !- Solar Transmittance at Normal Incidence
  0.053,                                  !- Front Side Solar Reflectance at Normal Incidence
  0.053,                                  !- Back Side Solar Reflectance at Normal Incidence
  0.431,                                  !- Visible Transmittance at Normal Incidence
  0.052,                                  !- Front Side Visible Reflectance at Normal Incidence
  0.052,                                  !- Back Side Visible Reflectance at Normal Incidence
  0,                                      !- Infrared Transmittance at Normal Incidence
  0.84,                                   !- Front Side Infrared Hemispherical Emissivity
  0.84,                                   !- Back Side Infrared Hemispherical Emissivity
  0.9;                                    !- Conductivity {W/m-K}

OS:ComponentData,
  {e4af1a5b-b93d-4c03-a24c-5cdc40edb2e8}, !- Handle
  Component Data 1,                       !- Name
  {33b78385-272a-4e5c-b74b-2daae8e46efb}, !- UUID
  {a6e6e3d7-64a6-41c4-8ec0-e244c4de3a30}, !- Version UUID
  1384380190,                             !- Creation Timestamp
  1384380190,                             !- Version Timestamp
  {9a37ca1e-de65-44aa-a732-668d47169c68}, !- Name of Object 1
  {cb2625fa-1462-444b-9310-283923eb3d0d}; !- Name of Object 2

