
OS:Version,
  {c331b81d-ae33-4a03-a477-c841ab5a5de6}, ! Handle
  0.9.3;                                  ! Version Identifier

OS:ComponentCost:LineItem,
  {5e7f8d12-7df2-4e6c-87ff-2bd77c56d614}, ! Handle
  90.1-2004 Res 1A Roof IEAD,             ! Name
  ,                                       ! Type
  Construction,                           ! Line Item Type
  90.1-2004 Res 1A Roof IEAD,             ! Item Name
  ,                                       ! Object End Use Key
  ,                                       ! Quantity {dimensionless}
  49.208,                                 ! Material Cost {$}
  CostPerArea;                            ! Material Cost Units

OS:Material,
  {3a7136d8-2c3d-41db-8c04-3feeafb124fc}, ! Handle
  Roof Insulation,                        ! Name
  MediumRough,                            ! Roughness
  0.124958,                               ! Thickness {m}
  0.049,                                  ! Conductivity {W/m-K}
  265,                                    ! Density {kg/m3}
  836.8,                                  ! Specific Heat {J/kg-K}
  0.9,                                    ! Thermal Absorptance
  0.7,                                    ! Solar Absorptance
  0.7;                                    ! Visible Absorptance

OS:Material,
  {da921f6c-20c6-4dc5-b665-f72a99d3bd92}, ! Handle
  Metal Decking,                          ! Name
  MediumSmooth,                           ! Roughness
  0.001524,                               ! Thickness {m}
  45.006,                                 ! Conductivity {W/m-K}
  7680,                                   ! Density {kg/m3}
  418.4,                                  ! Specific Heat {J/kg-K}
  0.9,                                    ! Thermal Absorptance
  0.7,                                    ! Solar Absorptance
  0.3;                                    ! Visible Absorptance

OS:Construction,
  {fa6c14f6-c8de-4e81-9fa7-14f617652254}, ! Handle
  90.1-2004 Res 1A Roof IEAD,             ! Name
  ,                                       ! Surface Rendering Name
  {108ed3d9-31f3-47da-bbcf-a68b8361eb8a}, ! Layer 1
  {3a7136d8-2c3d-41db-8c04-3feeafb124fc}, ! Layer 2
  {da921f6c-20c6-4dc5-b665-f72a99d3bd92}; ! Layer 3

OS:Material,
  {108ed3d9-31f3-47da-bbcf-a68b8361eb8a}, ! Handle
  Roof Membrane,                          ! Name
  VeryRough,                              ! Roughness
  0.0095,                                 ! Thickness {m}
  0.16,                                   ! Conductivity {W/m-K}
  1121.29,                                ! Density {kg/m3}
  1460,                                   ! Specific Heat {J/kg-K}
  0.9,                                    ! Thermal Absorptance
  0.7,                                    ! Solar Absorptance
  0.7;                                    ! Visible Absorptance

