
OS:Version,
  {c0ef435b-7648-4b98-a989-e1e07c2ef447}, ! Handle
  0.9.3;                                  ! Version Identifier

OS:Material,
  {7e78def3-73cb-4667-a694-732df2180e1c}, ! Handle
  MAT-METAL,                              ! Name
  MediumSmooth,                           ! Roughness
  0.001524,                               ! Thickness {m}
  45.006,                                 ! Conductivity {W/m-K}
  7680,                                   ! Density {kg/m3}
  418.4,                                  ! Specific Heat {J/kg-K}
  0.9,                                    ! Thermal Absorptance
  0.7,                                    ! Solar Absorptance
  0.3;                                    ! Visible Absorptance

OS:Material,
  {c00248c4-e8d9-4d5f-aac4-c8cec1e8b4ba}, ! Handle
  BUILT UP ROOFING 3/8 IN,                ! Name
  VeryRough,                              ! Roughness
  0.0095,                                 ! Thickness {m}
  0.16,                                   ! Conductivity {W/m-K}
  1121.29,                                ! Density {kg/m3}
  1460,                                   ! Specific Heat {J/kg-K}
  0.9,                                    ! Thermal Absorptance
  0.7,                                    ! Solar Absorptance
  0.7;                                    ! Visible Absorptance

OS:Material,
  {58dd3eb2-a1a2-4cf4-b9ae-9365f8d3aae0}, ! Handle
  Roof Insulation [59],                   ! Name
  MediumRough,                            ! Roughness
  0.0602571,                              ! Thickness {m}
  0.049,                                  ! Conductivity {W/m-K}
  265,                                    ! Density {kg/m3}
  836.8,                                  ! Specific Heat {J/kg-K}
  0.9,                                    ! Thermal Absorptance
  0.7,                                    ! Solar Absorptance
  0.7;                                    ! Visible Absorptance

OS:Construction,
  {caa4cda8-bc7f-4181-b913-5821eec5f011}, ! Handle
  90.1 Constructions Roof IEAD R-7.6 ci,  ! Name
  ,                                       ! Surface Rendering Name
  {c00248c4-e8d9-4d5f-aac4-c8cec1e8b4ba}, ! Layer 1
  {58dd3eb2-a1a2-4cf4-b9ae-9365f8d3aae0}, ! Layer 2
  {7e78def3-73cb-4667-a694-732df2180e1c}; ! Layer 3

OS:ComponentCost:LineItem,
  {effb8a42-c749-40b3-8478-f64a6761e704}, ! Handle
  90.1 Constructions Roof IEAD R-7.6 ci,  ! Name
  ,                                       ! Type
  Construction,                           ! Line Item Type
  90.1 Constructions Roof IEAD R-7.6 ci,  ! Item Name
  ,                                       ! Object End Use Key
  ,                                       ! Quantity {dimensionless}
  43.508,                                 ! Material Cost {$}
  CostPerArea;                            ! Material Cost Units

