
OS:Version,
  {12ec27fb-efdd-4339-8901-c2a4a6c6ace8}, ! Handle
  0.9.3;                                  ! Version Identifier

OS:Construction,
  {7b3d6701-670f-4a70-a53e-1690ae83ea76}, ! Handle
  90.1-2007 Nonres 2A Window Nonmetal framing, ! Name
  ,                                       ! Surface Rendering Name
  {e51ffb43-17ee-44e4-a1a8-110b735a38cd}; ! Layer 1

OS:WindowMaterial:Glazing,
  {e51ffb43-17ee-44e4-a1a8-110b735a38cd}, ! Handle
  Theoretical Glass [170],                ! Name
  SpectralAverage,                        ! Optical Data Type
  ,                                       ! Window Glass Spectral Data Set Name
  0.003,                                  ! Thickness {m}
  0.241851,                               ! Solar Transmittance at Normal Incidence
  0.708149,                               ! Front Side Solar Reflectance at Normal Incidence
  0.708149,                               ! Back Side Solar Reflectance at Normal Incidence
  0.251212,                               ! Visible Transmittance at Normal Incidence
  0.698788,                               ! Front Side Visible Reflectance at Normal Incidence
  0.698788,                               ! Back Side Visible Reflectance at Normal Incidence
  0,                                      ! Infrared Transmittance at Normal Incidence
  0.9,                                    ! Front Side Infrared Hemispherical Emissivity
  0.9,                                    ! Back Side Infrared Hemispherical Emissivity
  0.037738;                               ! Conductivity {W/m-K}

OS:ComponentCost:LineItem,
  {2eb092f0-8596-451f-8eda-b5f5f492e7a0}, ! Handle
  90.1-2007 Nonres 2A Window Nonmetal framing, ! Name
  ,                                       ! Type
  Construction,                           ! Line Item Type
  90.1-2007 Nonres 2A Window Nonmetal framing, ! Item Name
  ,                                       ! Object End Use Key
  ,                                       ! Quantity {dimensionless}
  600.037,                                ! Material Cost {$}
  CostPerArea;                            ! Material Cost Units

OS:ComponentData,
  {b4e6b6b3-f3bf-4568-8851-00d408ecfe74}, ! Handle
  Component Data 1,                       ! Name
  {98810af2-3cb3-42b4-9c03-fa22724ce587}, ! UUID
  {62d211a1-8fd8-43e1-b76f-330ed0e4cd9e}, ! Version UUID
  1363981791,                             ! Creation Timestamp
  1363981791,                             ! Version Timestamp
  {7b3d6701-670f-4a70-a53e-1690ae83ea76}, ! Name of Object 1
  {e51ffb43-17ee-44e4-a1a8-110b735a38cd}, ! Name of Object 2
  {2eb092f0-8596-451f-8eda-b5f5f492e7a0}; ! Name of Object 3

