
OS:Version,
  {e020c57e-8a10-46ff-bf65-d2d17fb9ab9d}, ! Handle
  0.9.3;                                  ! Version Identifier

OS:Construction,
  {d3579b38-7886-4251-833e-65e2d3668e19}, ! Handle
  90.1-2007 Nonres 2A Window Nonmetal framing, ! Name
  ,                                       ! Surface Rendering Name
  {18d0f520-16f2-4401-ac1e-bda76b379af6}; ! Layer 1

OS:WindowMaterial:Glazing,
  {18d0f520-16f2-4401-ac1e-bda76b379af6}, ! Handle
  Theoretical Glass [170],                ! Name
  SpectralAverage,                        ! Optical Data Type
  ,                                       ! Window Glass Spectral Data Set Name
  0.003,                                  ! Thickness {m}
  0.241851,                               ! Solar Transmittance at Normal Incidence
  0.708149,                               ! Front Side Solar Reflectance at Normal Incidence
  0.708149,                               ! Back Side Solar Reflectance at Normal Incidence
  0.251212,                               ! Visible Transmittance at Normal Incidence
  0.698788,                               ! Front Side Visible Reflectance at Normal Incidence
  0.698788,                               ! Back Side Visible Reflectance at Normal Incidence
  0,                                      ! Infrared Transmittance at Normal Incidence
  0.9,                                    ! Front Side Infrared Hemispherical Emissivity
  0.9,                                    ! Back Side Infrared Hemispherical Emissivity
  0.037738;                               ! Conductivity {W/m-K}

OS:ComponentCost:LineItem,
  {fc49291e-b557-4ab2-a3d5-900b2176d44c}, ! Handle
  90.1-2007 Nonres 2A Window Nonmetal framing, ! Name
  ,                                       ! Type
  Construction,                           ! Line Item Type
  90.1-2007 Nonres 2A Window Nonmetal framing, ! Item Name
  ,                                       ! Object End Use Key
  ,                                       ! Quantity {dimensionless}
  600.037,                                ! Material Cost {$}
  CostPerArea;                            ! Material Cost Units

