
OS:Version,
  {e3cdda9c-72fe-4ba5-aae6-792d350b5b17}, ! Handle
  0.9.3;                                  ! Version Identifier

OS:ComponentCost:LineItem,
  {2ed8df14-5fb1-4603-bb6e-0ed4fa0275d7}, ! Handle
  90.1-2004 Res 1A Ext Slab Unheated - 4in Slab without Carpet, ! Name
  ,                                       ! Type
  Construction,                           ! Line Item Type
  90.1-2004 Res 1A Ext Slab Unheated - 4in Slab without Carpet, ! Item Name
  ,                                       ! Object End Use Key
  ,                                       ! Quantity {dimensionless}
  45.52,                                  ! Material Cost {$}
  CostPerArea;                            ! Material Cost Units

OS:Construction,
  {8d77a0e5-752e-41e1-9742-ac0ce3c4974d}, ! Handle
  90.1-2004 Res 1A Ext Slab Unheated - 4in Slab without Carpet, ! Name
  ,                                       ! Surface Rendering Name
  {026bc469-5b17-40b2-a7c3-b8f1519e27b5}; ! Layer 1

OS:Material,
  {026bc469-5b17-40b2-a7c3-b8f1519e27b5}, ! Handle
  MAT-CC05 4 HW CONCRETE,                 ! Name
  Rough,                                  ! Roughness
  0.1016,                                 ! Thickness {m}
  1.311,                                  ! Conductivity {W/m-K}
  2240,                                   ! Density {kg/m3}
  836.8,                                  ! Specific Heat {J/kg-K}
  0.9,                                    ! Thermal Absorptance
  0.7,                                    ! Solar Absorptance
  0.7;                                    ! Visible Absorptance

