
OS:Version,
  {a941748e-d9f1-4161-a24b-dbea45964c18}, ! Handle
  0.9.3;                                  ! Version Identifier

OS:Construction,
  {e9c10d27-8ff8-4386-9e50-a6d5125b8499}, ! Handle
  90.1-2004 Res 1A Ext Slab Unheated - 4in Slab without Carpet, ! Name
  ,                                       ! Surface Rendering Name
  {a04d1444-a22f-4a54-ad36-8ec60fd8a186}; ! Layer 1

OS:Material,
  {a04d1444-a22f-4a54-ad36-8ec60fd8a186}, ! Handle
  MAT-CC05 4 HW CONCRETE,                 ! Name
  Rough,                                  ! Roughness
  0.1016,                                 ! Thickness {m}
  1.311,                                  ! Conductivity {W/m-K}
  2240,                                   ! Density {kg/m3}
  836.8,                                  ! Specific Heat {J/kg-K}
  0.9,                                    ! Thermal Absorptance
  0.7,                                    ! Solar Absorptance
  0.7;                                    ! Visible Absorptance

OS:ComponentCost:LineItem,
  {ce5e0f32-7746-4a5e-80dc-501bca8c2308}, ! Handle
  90.1-2004 Res 1A Ext Slab Unheated - 4in Slab without Carpet, ! Name
  ,                                       ! Type
  Construction,                           ! Line Item Type
  90.1-2004 Res 1A Ext Slab Unheated - 4in Slab without Carpet, ! Item Name
  ,                                       ! Object End Use Key
  ,                                       ! Quantity {dimensionless}
  45.52,                                  ! Material Cost {$}
  CostPerArea;                            ! Material Cost Units

OS:ComponentData,
  {5afa7d88-aa85-4b67-89b1-628963eea23a}, ! Handle
  Component Data 1,                       ! Name
  {3ae5447a-06ac-48f8-9d88-196b8ffce172}, ! UUID
  {16eb2769-5a64-4bce-ba14-918d7b00e44b}, ! Version UUID
  1363981712,                             ! Creation Timestamp
  1363981712,                             ! Version Timestamp
  {e9c10d27-8ff8-4386-9e50-a6d5125b8499}, ! Name of Object 1
  {a04d1444-a22f-4a54-ad36-8ec60fd8a186}, ! Name of Object 2
  {ce5e0f32-7746-4a5e-80dc-501bca8c2308}; ! Name of Object 3

