
OS:Version,
  {a5285f30-c0e8-42c6-b314-393b576ec48e}, ! Handle
  0.9.3;                                  ! Version Identifier

OS:Material,
  {0b566ae5-0925-40e4-924a-9705f6692ec7}, ! Handle
  Roof Insulation,                        ! Name
  MediumRough,                            ! Roughness
  0.124958,                               ! Thickness {m}
  0.049,                                  ! Conductivity {W/m-K}
  265,                                    ! Density {kg/m3}
  836.8,                                  ! Specific Heat {J/kg-K}
  0.9,                                    ! Thermal Absorptance
  0.7,                                    ! Solar Absorptance
  0.7;                                    ! Visible Absorptance

OS:ComponentCost:LineItem,
  {05285835-0732-49d6-8a5c-07f13d71496f}, ! Handle
  90.1-1999 Res B13 Roof IEAD,            ! Name
  ,                                       ! Type
  Construction,                           ! Line Item Type
  90.1-1999 Res B13 Roof IEAD,            ! Item Name
  ,                                       ! Object End Use Key
  ,                                       ! Quantity {dimensionless}
  49.208,                                 ! Material Cost {$}
  CostPerArea;                            ! Material Cost Units

OS:Material,
  {b9ff9abd-4b62-4edf-885a-6271cc1e38a5}, ! Handle
  Roof Membrane,                          ! Name
  VeryRough,                              ! Roughness
  0.0095,                                 ! Thickness {m}
  0.16,                                   ! Conductivity {W/m-K}
  1121.29,                                ! Density {kg/m3}
  1460,                                   ! Specific Heat {J/kg-K}
  0.9,                                    ! Thermal Absorptance
  0.7,                                    ! Solar Absorptance
  0.7;                                    ! Visible Absorptance

OS:Material,
  {36b7871a-5567-49a9-a8e6-da5941de2894}, ! Handle
  Metal Decking,                          ! Name
  MediumSmooth,                           ! Roughness
  0.001524,                               ! Thickness {m}
  45.006,                                 ! Conductivity {W/m-K}
  7680,                                   ! Density {kg/m3}
  418.4,                                  ! Specific Heat {J/kg-K}
  0.9,                                    ! Thermal Absorptance
  0.7,                                    ! Solar Absorptance
  0.3;                                    ! Visible Absorptance

OS:Construction,
  {69bf74ff-0ed6-468c-84a2-b7851d223f85}, ! Handle
  90.1-1999 Res B13 Roof IEAD,            ! Name
  ,                                       ! Surface Rendering Name
  {b9ff9abd-4b62-4edf-885a-6271cc1e38a5}, ! Layer 1
  {0b566ae5-0925-40e4-924a-9705f6692ec7}, ! Layer 2
  {36b7871a-5567-49a9-a8e6-da5941de2894}; ! Layer 3

