
OS:Version,
  {a638bf52-3513-4039-a385-c5aa58b7fb27}, ! Handle
  0.9.3;                                  ! Version Identifier

OS:Material,
  {6fcb5947-e674-4ae6-b5cc-a736bc8844ec}, ! Handle
  Roof Insulation [3],                    ! Name
  MediumRough,                            ! Roughness
  0.0806842,                              ! Thickness {m}
  0.049,                                  ! Conductivity {W/m-K}
  265,                                    ! Density {kg/m3}
  836.8,                                  ! Specific Heat {J/kg-K}
  0.9,                                    ! Thermal Absorptance
  0.7,                                    ! Solar Absorptance
  0.7;                                    ! Visible Absorptance

OS:Material,
  {73dd940c-5d31-47ab-b0f9-bda7f8bbea3d}, ! Handle
  Metal Decking,                          ! Name
  MediumSmooth,                           ! Roughness
  0.001524,                               ! Thickness {m}
  45.006,                                 ! Conductivity {W/m-K}
  7680,                                   ! Density {kg/m3}
  418.4,                                  ! Specific Heat {J/kg-K}
  0.9,                                    ! Thermal Absorptance
  0.7,                                    ! Solar Absorptance
  0.3;                                    ! Visible Absorptance

OS:Construction,
  {da79c388-da7c-4991-80b5-e065a031ea66}, ! Handle
  90.1-1999 Nonres B12 Roof IEAD,         ! Name
  ,                                       ! Surface Rendering Name
  {d3bd3dbe-199e-4339-b8c7-20117724a2f6}, ! Layer 1
  {6fcb5947-e674-4ae6-b5cc-a736bc8844ec}, ! Layer 2
  {73dd940c-5d31-47ab-b0f9-bda7f8bbea3d}; ! Layer 3

OS:Material,
  {d3bd3dbe-199e-4339-b8c7-20117724a2f6}, ! Handle
  Roof Membrane,                          ! Name
  VeryRough,                              ! Roughness
  0.0095,                                 ! Thickness {m}
  0.16,                                   ! Conductivity {W/m-K}
  1121.29,                                ! Density {kg/m3}
  1460,                                   ! Specific Heat {J/kg-K}
  0.9,                                    ! Thermal Absorptance
  0.7,                                    ! Solar Absorptance
  0.7;                                    ! Visible Absorptance

OS:ComponentCost:LineItem,
  {1e3ad67d-7790-4d55-b7f8-56af9eb91ec8}, ! Handle
  90.1-1999 Nonres B12 Roof IEAD,         ! Name
  ,                                       ! Type
  Construction,                           ! Line Item Type
  90.1-1999 Nonres B12 Roof IEAD,         ! Item Name
  ,                                       ! Object End Use Key
  ,                                       ! Quantity {dimensionless}
  45.318,                                 ! Material Cost {$}
  CostPerArea;                            ! Material Cost Units

