
OS:Version,
  {7c040452-ebe9-400b-b60f-0aa58e0c339e}, ! Handle
  0.9.3;                                  ! Version Identifier

OS:Construction,
  {f8b974df-560f-4bcf-bbfa-d89730ed28e2}, ! Handle
  90.1-1999 Nonres B8 Ext Slab Unheated - 8in Slab without Carpet, ! Name
  ,                                       ! Surface Rendering Name
  {ebe4394f-0f97-4fa5-9ff5-cb05099e624d}; ! Layer 1

OS:Material,
  {ebe4394f-0f97-4fa5-9ff5-cb05099e624d}, ! Handle
  MAT-CC05 8 HW CONCRETE,                 ! Name
  Rough,                                  ! Roughness
  0.20321,                                ! Thickness {m}
  1.311,                                  ! Conductivity {W/m-K}
  2240,                                   ! Density {kg/m3}
  836.8,                                  ! Specific Heat {J/kg-K}
  0.9,                                    ! Thermal Absorptance
  0.7,                                    ! Solar Absorptance
  0.7;                                    ! Visible Absorptance

OS:ComponentCost:LineItem,
  {b76a709e-9546-4316-aa9e-f2e36341cbea}, ! Handle
  90.1-1999 Nonres B8 Ext Slab Unheated - 8in Slab without Carpet, ! Name
  ,                                       ! Type
  Construction,                           ! Line Item Type
  90.1-1999 Nonres B8 Ext Slab Unheated - 8in Slab without Carpet, ! Item Name
  ,                                       ! Object End Use Key
  ,                                       ! Quantity {dimensionless}
  45.52,                                  ! Material Cost {$}
  CostPerArea;                            ! Material Cost Units

