
OS:Version,
  {8e3b88cc-4e9b-46b2-bfbf-ceb6cbb4ff3c}, ! Handle
  0.9.3;                                  ! Version Identifier

OS:Material,
  {509e2a56-1c05-4003-a556-503d45b0f45d}, ! Handle
  MAT-CC05 4 HW CONCRETE,                 ! Name
  Rough,                                  ! Roughness
  0.1016,                                 ! Thickness {m}
  1.311,                                  ! Conductivity {W/m-K}
  2240,                                   ! Density {kg/m3}
  836.8,                                  ! Specific Heat {J/kg-K}
  0.9,                                    ! Thermal Absorptance
  0.7,                                    ! Solar Absorptance
  0.7;                                    ! Visible Absorptance

OS:ComponentCost:LineItem,
  {499f259c-d3ef-4a0b-b245-a34803327b9b}, ! Handle
  90.1-2001 Res B25 Ext Slab Unheated - 4in Slab with Carpet, ! Name
  ,                                       ! Type
  Construction,                           ! Line Item Type
  90.1-2001 Res B25 Ext Slab Unheated - 4in Slab with Carpet, ! Item Name
  ,                                       ! Object End Use Key
  ,                                       ! Quantity {dimensionless}
  45.52,                                  ! Material Cost {$}
  CostPerArea;                            ! Material Cost Units

OS:Construction,
  {bc72866e-03ae-41e6-a3e6-7ef9a0c33c4a}, ! Handle
  90.1-2001 Res B25 Ext Slab Unheated - 4in Slab with Carpet, ! Name
  ,                                       ! Surface Rendering Name
  {509e2a56-1c05-4003-a556-503d45b0f45d}, ! Layer 1
  {bb2600f1-2219-4e7a-80ee-9ec29fb168a2}; ! Layer 2

OS:Material:NoMass,
  {bb2600f1-2219-4e7a-80ee-9ec29fb168a2}, ! Handle
  CP02 CARPET PAD,                        ! Name
  VeryRough,                              ! Roughness
  0.21648,                                ! Thermal Resistance {m2-K/W}
  0.9,                                    ! Thermal Absorptance
  0.7,                                    ! Solar Absorptance
  0.8;                                    ! Visible Absorptance

