
OS:Version,
  {5fb529ff-dd9e-42d2-93d3-c7440d00b2d0}, ! Handle
  0.9.3;                                  ! Version Identifier

OS:Material:NoMass,
  {27645195-8b91-4ed3-8ecf-f3dbb0da5d92}, ! Handle
  MAT-SHEATH,                             ! Name
  Rough,                                  ! Roughness
  0.36256,                                ! Thermal Resistance {m2-K/W}
  0.9,                                    ! Thermal Absorptance
  0.7,                                    ! Solar Absorptance
  0.7;                                    ! Visible Absorptance

OS:Construction,
  {0cf3dcf1-405e-4bad-990d-94d3e3fe7276}, ! Handle
  90.1-2001 Nonres B9 Ext Wall Steel-Framed, ! Name
  ,                                       ! Surface Rendering Name
  {27645195-8b91-4ed3-8ecf-f3dbb0da5d92}, ! Layer 1
  {e0754c14-6b94-4a02-8db6-e54ead309420}, ! Layer 2
  {73f10788-070a-46ed-bd99-133b78385549}; ! Layer 3

OS:Material,
  {e0754c14-6b94-4a02-8db6-e54ead309420}, ! Handle
  Wall Insulation [1],                    ! Name
  MediumRough,                            ! Roughness
  0.0373223,                              ! Thickness {m}
  0.045,                                  ! Conductivity {W/m-K}
  265,                                    ! Density {kg/m3}
  836.8,                                  ! Specific Heat {J/kg-K}
  0.9,                                    ! Thermal Absorptance
  0.7,                                    ! Solar Absorptance
  0.7;                                    ! Visible Absorptance

OS:Material,
  {73f10788-070a-46ed-bd99-133b78385549}, ! Handle
  1/2IN Gypsum,                           ! Name
  Smooth,                                 ! Roughness
  0.01271,                                ! Thickness {m}
  0.16,                                   ! Conductivity {W/m-K}
  784.9,                                  ! Density {kg/m3}
  830,                                    ! Specific Heat {J/kg-K}
  0.9,                                    ! Thermal Absorptance
  0.92,                                   ! Solar Absorptance
  0.92;                                   ! Visible Absorptance

OS:ComponentCost:LineItem,
  {ed3b9aa5-308b-411b-afce-cd3c03c84d58}, ! Handle
  90.1-2001 Nonres B9 Ext Wall Steel-Framed, ! Name
  ,                                       ! Type
  Construction,                           ! Line Item Type
  90.1-2001 Nonres B9 Ext Wall Steel-Framed, ! Item Name
  ,                                       ! Object End Use Key
  ,                                       ! Quantity {dimensionless}
  87.08,                                  ! Material Cost {$}
  CostPerArea;                            ! Material Cost Units

