
OS:Version,
  {0cd4fac9-2c43-4e25-b721-040948eb1e9e}, ! Handle
  0.9.3;                                  ! Version Identifier

OS:Construction,
  {ee9ac9ed-d034-4e06-a5a7-34456e528ec0}, ! Handle
  90.1-2001 Nonres B9 Ext Wall Steel-Framed, ! Name
  ,                                       ! Surface Rendering Name
  {b554c58e-47e5-4d85-b115-8f3e397a06a3}, ! Layer 1
  {199ab283-aafb-4e2b-89bf-e37d4568f062}, ! Layer 2
  {4c579b25-45e0-4b6c-8411-64258df8b4bd}; ! Layer 3

OS:Material:NoMass,
  {b554c58e-47e5-4d85-b115-8f3e397a06a3}, ! Handle
  MAT-SHEATH,                             ! Name
  Rough,                                  ! Roughness
  0.36256,                                ! Thermal Resistance {m2-K/W}
  0.9,                                    ! Thermal Absorptance
  0.7,                                    ! Solar Absorptance
  0.7;                                    ! Visible Absorptance

OS:Material,
  {199ab283-aafb-4e2b-89bf-e37d4568f062}, ! Handle
  Wall Insulation [1],                    ! Name
  MediumRough,                            ! Roughness
  0.0373223,                              ! Thickness {m}
  0.045,                                  ! Conductivity {W/m-K}
  265,                                    ! Density {kg/m3}
  836.8,                                  ! Specific Heat {J/kg-K}
  0.9,                                    ! Thermal Absorptance
  0.7,                                    ! Solar Absorptance
  0.7;                                    ! Visible Absorptance

OS:Material,
  {4c579b25-45e0-4b6c-8411-64258df8b4bd}, ! Handle
  1/2IN Gypsum,                           ! Name
  Smooth,                                 ! Roughness
  0.01271,                                ! Thickness {m}
  0.16,                                   ! Conductivity {W/m-K}
  784.9,                                  ! Density {kg/m3}
  830,                                    ! Specific Heat {J/kg-K}
  0.9,                                    ! Thermal Absorptance
  0.92,                                   ! Solar Absorptance
  0.92;                                   ! Visible Absorptance

OS:ComponentCost:LineItem,
  {ba9eb5f6-c09a-4e95-9273-882ae54377ae}, ! Handle
  90.1-2001 Nonres B9 Ext Wall Steel-Framed, ! Name
  ,                                       ! Type
  Construction,                           ! Line Item Type
  90.1-2001 Nonres B9 Ext Wall Steel-Framed, ! Item Name
  ,                                       ! Object End Use Key
  ,                                       ! Quantity {dimensionless}
  87.08,                                  ! Material Cost {$}
  CostPerArea;                            ! Material Cost Units

OS:ComponentData,
  {0eb58cea-29b7-4e6f-b5bd-67a04d3197db}, ! Handle
  Component Data 1,                       ! Name
  {57a7a1c1-7ef8-4dd7-b5cb-84dff1256830}, ! UUID
  {8b730e9c-d241-48e3-b590-06890753ae2f}, ! Version UUID
  1363981333,                             ! Creation Timestamp
  1363981333,                             ! Version Timestamp
  {ee9ac9ed-d034-4e06-a5a7-34456e528ec0}, ! Name of Object 1
  {b554c58e-47e5-4d85-b115-8f3e397a06a3}, ! Name of Object 2
  {199ab283-aafb-4e2b-89bf-e37d4568f062}, ! Name of Object 3
  {4c579b25-45e0-4b6c-8411-64258df8b4bd}, ! Name of Object 4
  {ba9eb5f6-c09a-4e95-9273-882ae54377ae}; ! Name of Object 5

