
OS:Version,
  {37e629e5-8ba8-446c-9bcc-172c53316778}, ! Handle
  0.9.3;                                  ! Version Identifier

OS:Construction,
  {6dbeb90c-94ca-4666-99be-e5fbc7bf6228}, ! Handle
  90.1-1999 Res B25 Window Fixed,         ! Name
  ,                                       ! Surface Rendering Name
  {f0e07828-71c1-4078-93d0-f3b8408fbda1}; ! Layer 1

OS:WindowMaterial:Glazing,
  {f0e07828-71c1-4078-93d0-f3b8408fbda1}, ! Handle
  Theoretical Glass [116],                ! Name
  SpectralAverage,                        ! Optical Data Type
  ,                                       ! Window Glass Spectral Data Set Name
  0.003,                                  ! Thickness {m}
  0.438713,                               ! Solar Transmittance at Normal Incidence
  0.511287,                               ! Front Side Solar Reflectance at Normal Incidence
  0.511287,                               ! Back Side Solar Reflectance at Normal Incidence
  0.460166,                               ! Visible Transmittance at Normal Incidence
  0.489834,                               ! Front Side Visible Reflectance at Normal Incidence
  0.489834,                               ! Back Side Visible Reflectance at Normal Incidence
  0,                                      ! Infrared Transmittance at Normal Incidence
  0.9,                                    ! Front Side Infrared Hemispherical Emissivity
  0.9,                                    ! Back Side Infrared Hemispherical Emissivity
  0.00819027;                             ! Conductivity {W/m-K}

OS:ComponentCost:LineItem,
  {a7e9d5c3-cbfe-4f7d-8845-e35ef98077ac}, ! Handle
  90.1-1999 Res B25 Window Fixed,         ! Name
  ,                                       ! Type
  Construction,                           ! Line Item Type
  90.1-1999 Res B25 Window Fixed,         ! Item Name
  ,                                       ! Object End Use Key
  ,                                       ! Quantity {dimensionless}
  586.91,                                 ! Material Cost {$}
  CostPerArea;                            ! Material Cost Units

