
OS:Version,
  {62e1e218-f0df-444c-80d0-4c5d9d4f2ea9}, ! Handle
  0.9.3;                                  ! Version Identifier

OS:Construction,
  {1f08b9eb-c173-471a-a79c-cc0176e53c22}, ! Handle
  90.1-2004 Nonres 7A Skylight without Curb, ! Name
  ,                                       ! Surface Rendering Name
  {4d010e3f-ec39-4ffc-b551-5c8dbb7f59af}; ! Layer 1

OS:WindowMaterial:Glazing,
  {4d010e3f-ec39-4ffc-b551-5c8dbb7f59af}, ! Handle
  Theoretical Glass [153],                ! Name
  SpectralAverage,                        ! Optical Data Type
  ,                                       ! Window Glass Spectral Data Set Name
  0.003,                                  ! Thickness {m}
  0.481761,                               ! Solar Transmittance at Normal Incidence
  0.468239,                               ! Front Side Solar Reflectance at Normal Incidence
  0.468239,                               ! Back Side Solar Reflectance at Normal Incidence
  0.489393,                               ! Visible Transmittance at Normal Incidence
  0.460607,                               ! Front Side Visible Reflectance at Normal Incidence
  0.460607,                               ! Back Side Visible Reflectance at Normal Incidence
  0,                                      ! Infrared Transmittance at Normal Incidence
  0.9,                                    ! Front Side Infrared Hemispherical Emissivity
  0.9,                                    ! Back Side Infrared Hemispherical Emissivity
  0.03026;                                ! Conductivity {W/m-K}

OS:ComponentCost:LineItem,
  {5c5e1480-961c-4f19-bcca-8729b21d70d9}, ! Handle
  90.1-2004 Nonres 7A Skylight without Curb, ! Name
  ,                                       ! Type
  Construction,                           ! Line Item Type
  90.1-2004 Nonres 7A Skylight without Curb, ! Item Name
  ,                                       ! Object End Use Key
  ,                                       ! Quantity {dimensionless}
  508.362,                                ! Material Cost {$}
  CostPerArea;                            ! Material Cost Units

OS:ComponentData,
  {03853ac5-8d7c-4257-a234-591913c2adc5}, ! Handle
  Component Data 1,                       ! Name
  {294802af-ab7a-453f-b929-7fe83e3af2f7}, ! UUID
  {97426637-22e0-4ec7-97b8-ba8bdad20ab5}, ! Version UUID
  1363981699,                             ! Creation Timestamp
  1363981699,                             ! Version Timestamp
  {1f08b9eb-c173-471a-a79c-cc0176e53c22}, ! Name of Object 1
  {4d010e3f-ec39-4ffc-b551-5c8dbb7f59af}, ! Name of Object 2
  {5c5e1480-961c-4f19-bcca-8729b21d70d9}; ! Name of Object 3

