
OS:Version,
  {cdb0cd70-8451-4eea-821d-5b65c43146f8}, ! Handle
  0.9.3;                                  ! Version Identifier

OS:ComponentCost:LineItem,
  {8ffb3234-39f8-41b9-b6d3-2bd7f8407319}, ! Handle
  90.1-2004 Nonres 7A Skylight without Curb, ! Name
  ,                                       ! Type
  Construction,                           ! Line Item Type
  90.1-2004 Nonres 7A Skylight without Curb, ! Item Name
  ,                                       ! Object End Use Key
  ,                                       ! Quantity {dimensionless}
  508.362,                                ! Material Cost {$}
  CostPerArea;                            ! Material Cost Units

OS:Construction,
  {ea4cd166-eebe-4935-947d-f5dbe0a56162}, ! Handle
  90.1-2004 Nonres 7A Skylight without Curb, ! Name
  ,                                       ! Surface Rendering Name
  {944d3ebc-068a-4f17-b92b-4b627036ae2e}; ! Layer 1

OS:WindowMaterial:Glazing,
  {944d3ebc-068a-4f17-b92b-4b627036ae2e}, ! Handle
  Theoretical Glass [153],                ! Name
  SpectralAverage,                        ! Optical Data Type
  ,                                       ! Window Glass Spectral Data Set Name
  0.003,                                  ! Thickness {m}
  0.481761,                               ! Solar Transmittance at Normal Incidence
  0.468239,                               ! Front Side Solar Reflectance at Normal Incidence
  0.468239,                               ! Back Side Solar Reflectance at Normal Incidence
  0.489393,                               ! Visible Transmittance at Normal Incidence
  0.460607,                               ! Front Side Visible Reflectance at Normal Incidence
  0.460607,                               ! Back Side Visible Reflectance at Normal Incidence
  0,                                      ! Infrared Transmittance at Normal Incidence
  0.9,                                    ! Front Side Infrared Hemispherical Emissivity
  0.9,                                    ! Back Side Infrared Hemispherical Emissivity
  0.03026;                                ! Conductivity {W/m-K}

