
OS:Version,
  {c8cef114-083c-454c-92f4-28ed58eb1507}, ! Handle
  0.9.3;                                  ! Version Identifier

OS:Construction,
  {a57435d5-2281-43a5-9080-eb44f2721c06}, ! Handle
  90.1-2001 Nonres B6 Roof Attic and Other, ! Name
  ,                                       ! Surface Rendering Name
  {2d249dfc-9da4-49e0-b7b3-c455d52bb2b3}, ! Layer 1
  {94b06bcb-a7ab-479c-8ebb-bd5fca3590b5}, ! Layer 2
  {14e9bded-8276-4c81-a6a8-87202889f93e}, ! Layer 3
  {d14ef366-14bd-4591-8b4a-fcd277096930}; ! Layer 4

OS:Material,
  {2d249dfc-9da4-49e0-b7b3-c455d52bb2b3}, ! Handle
  Wood Shingles,                          ! Name
  VeryRough,                              ! Roughness
  0.0178,                                 ! Thickness {m}
  0.115,                                  ! Conductivity {W/m-K}
  513,                                    ! Density {kg/m3}
  1255,                                   ! Specific Heat {J/kg-K}
  0.9,                                    ! Thermal Absorptance
  0.78,                                   ! Solar Absorptance
  0.78;                                   ! Visible Absorptance

OS:Material,
  {94b06bcb-a7ab-479c-8ebb-bd5fca3590b5}, ! Handle
  1IN Wood Decking,                       ! Name
  MediumSmooth,                           ! Roughness
  0.0254,                                 ! Thickness {m}
  0.1211,                                 ! Conductivity {W/m-K}
  593,                                    ! Density {kg/m3}
  2510,                                   ! Specific Heat {J/kg-K}
  0.9,                                    ! Thermal Absorptance
  0.78,                                   ! Solar Absorptance
  0.78;                                   ! Visible Absorptance

OS:Material,
  {14e9bded-8276-4c81-a6a8-87202889f93e}, ! Handle
  Roof Insulation [2],                    ! Name
  MediumRough,                            ! Roughness
  0.221604,                               ! Thickness {m}
  0.049,                                  ! Conductivity {W/m-K}
  265,                                    ! Density {kg/m3}
  836.8,                                  ! Specific Heat {J/kg-K}
  0.9,                                    ! Thermal Absorptance
  0.7,                                    ! Solar Absorptance
  0.7;                                    ! Visible Absorptance

OS:Material,
  {d14ef366-14bd-4591-8b4a-fcd277096930}, ! Handle
  1/2IN Gypsum,                           ! Name
  Smooth,                                 ! Roughness
  0.01271,                                ! Thickness {m}
  0.16,                                   ! Conductivity {W/m-K}
  784.9,                                  ! Density {kg/m3}
  830,                                    ! Specific Heat {J/kg-K}
  0.9,                                    ! Thermal Absorptance
  0.92,                                   ! Solar Absorptance
  0.92;                                   ! Visible Absorptance

OS:ComponentCost:LineItem,
  {9db211e6-2a45-40d5-88ff-599edb931f70}, ! Handle
  90.1-2001 Nonres B6 Roof Attic and Other, ! Name
  ,                                       ! Type
  Construction,                           ! Line Item Type
  90.1-2001 Nonres B6 Roof Attic and Other, ! Item Name
  ,                                       ! Object End Use Key
  ,                                       ! Quantity {dimensionless}
  33.39,                                  ! Material Cost {$}
  CostPerArea;                            ! Material Cost Units

