
OS:Version,
  {ac17e9e2-68b3-4394-8135-a125dca5d118}, ! Handle
  0.9.3;                                  ! Version Identifier

OS:Construction,
  {270f94b8-0ef5-42b8-b453-bfe622b60dc0}, ! Handle
  90.1-2001 Nonres B25 Window Fixed,      ! Name
  ,                                       ! Surface Rendering Name
  {e6f75dff-8d7f-4700-83a3-6e68bc84b89e}; ! Layer 1

OS:WindowMaterial:Glazing,
  {e6f75dff-8d7f-4700-83a3-6e68bc84b89e}, ! Handle
  Theoretical Glass [51],                 ! Name
  SpectralAverage,                        ! Optical Data Type
  ,                                       ! Window Glass Spectral Data Set Name
  0.003,                                  ! Thickness {m}
  0.455617,                               ! Solar Transmittance at Normal Incidence
  0.494383,                               ! Front Side Solar Reflectance at Normal Incidence
  0.494383,                               ! Back Side Solar Reflectance at Normal Incidence
  0.493419,                               ! Visible Transmittance at Normal Incidence
  0.456581,                               ! Front Side Visible Reflectance at Normal Incidence
  0.456581,                               ! Back Side Visible Reflectance at Normal Incidence
  0,                                      ! Infrared Transmittance at Normal Incidence
  0.9,                                    ! Front Side Infrared Hemispherical Emissivity
  0.9,                                    ! Back Side Infrared Hemispherical Emissivity
  0.008112;                               ! Conductivity {W/m-K}

OS:ComponentCost:LineItem,
  {6407602c-ebb2-4674-a882-15c36f9c5b8f}, ! Handle
  90.1-2001 Nonres B25 Window Fixed,      ! Name
  ,                                       ! Type
  Construction,                           ! Line Item Type
  90.1-2001 Nonres B25 Window Fixed,      ! Item Name
  ,                                       ! Object End Use Key
  ,                                       ! Quantity {dimensionless}
  445.201,                                ! Material Cost {$}
  CostPerArea;                            ! Material Cost Units

