
OS:Version,
  {1ea2cfa6-d2a3-4168-8250-7b45ad37d92c}, ! Handle
  0.9.3;                                  ! Version Identifier

OS:Construction,
  {7e372f22-79d4-4296-b7ae-bf6e0fd65013}, ! Handle
  90.1-2007 Res 7A Attic Floor,           ! Name
  ,                                       ! Surface Rendering Name
  {892b0139-839e-4d96-a371-3f11634442b6}, ! Layer 1
  {3c51e978-b751-460e-b3c4-5f001ef5b7ef}, ! Layer 2
  {c189c7cf-f2eb-48c7-9978-b40572072d4b}; ! Layer 3

OS:Material,
  {892b0139-839e-4d96-a371-3f11634442b6}, ! Handle
  1/2IN Gypsum Top,                       ! Name
  Smooth,                                 ! Roughness
  0.01271,                                ! Thickness {m}
  0.16,                                   ! Conductivity {W/m-K}
  784.9,                                  ! Density {kg/m3}
  830,                                    ! Specific Heat {J/kg-K}
  0.9,                                    ! Thermal Absorptance
  0.92,                                   ! Solar Absorptance
  0.92;                                   ! Visible Absorptance

OS:Material,
  {3c51e978-b751-460e-b3c4-5f001ef5b7ef}, ! Handle
  AtticFloor Insulation [1],              ! Name
  MediumRough,                            ! Roughness
  0.303719,                               ! Thickness {m}
  0.049,                                  ! Conductivity {W/m-K}
  265,                                    ! Density {kg/m3}
  836.8,                                  ! Specific Heat {J/kg-K}
  0.9,                                    ! Thermal Absorptance
  0.7,                                    ! Solar Absorptance
  0.7;                                    ! Visible Absorptance

OS:Material,
  {c189c7cf-f2eb-48c7-9978-b40572072d4b}, ! Handle
  1/2IN Gypsum Bottom,                    ! Name
  Smooth,                                 ! Roughness
  0.01271,                                ! Thickness {m}
  0.16,                                   ! Conductivity {W/m-K}
  784.9,                                  ! Density {kg/m3}
  830,                                    ! Specific Heat {J/kg-K}
  0.9,                                    ! Thermal Absorptance
  0.92,                                   ! Solar Absorptance
  0.92;                                   ! Visible Absorptance

OS:ComponentCost:LineItem,
  {e74c7b63-108f-4f54-8e00-a6ad3a11c27e}, ! Handle
  90.1-2007 Res 7A Attic Floor,           ! Name
  ,                                       ! Type
  Construction,                           ! Line Item Type
  90.1-2007 Res 7A Attic Floor,           ! Item Name
  ,                                       ! Object End Use Key
  ,                                       ! Quantity {dimensionless}
  35.009,                                 ! Material Cost {$}
  CostPerArea;                            ! Material Cost Units

OS:ComponentData,
  {31994bed-36b9-42b9-90ff-0dcf699116f5}, ! Handle
  Component Data 1,                       ! Name
  {aeaa349c-1799-4a01-8b34-d80598303924}, ! UUID
  {e3180ada-907b-4c49-84e0-115c96fc8e99}, ! Version UUID
  1363981870,                             ! Creation Timestamp
  1363981870,                             ! Version Timestamp
  {7e372f22-79d4-4296-b7ae-bf6e0fd65013}, ! Name of Object 1
  {892b0139-839e-4d96-a371-3f11634442b6}, ! Name of Object 2
  {3c51e978-b751-460e-b3c4-5f001ef5b7ef}, ! Name of Object 3
  {c189c7cf-f2eb-48c7-9978-b40572072d4b}, ! Name of Object 4
  {e74c7b63-108f-4f54-8e00-a6ad3a11c27e}; ! Name of Object 5

