
OS:Version,
  {65c9f1d1-ad82-40d3-8d8b-4dbc6b16f3ac}, ! Handle
  0.9.3;                                  ! Version Identifier

OS:Material,
  {2c14856e-8298-40f8-a192-e50d485ec7e2}, ! Handle
  AtticFloor Insulation [1],              ! Name
  MediumRough,                            ! Roughness
  0.303719,                               ! Thickness {m}
  0.049,                                  ! Conductivity {W/m-K}
  265,                                    ! Density {kg/m3}
  836.8,                                  ! Specific Heat {J/kg-K}
  0.9,                                    ! Thermal Absorptance
  0.7,                                    ! Solar Absorptance
  0.7;                                    ! Visible Absorptance

OS:Material,
  {3312e229-4b71-4137-9389-edd9c507c3c1}, ! Handle
  1/2IN Gypsum Top,                       ! Name
  Smooth,                                 ! Roughness
  0.01271,                                ! Thickness {m}
  0.16,                                   ! Conductivity {W/m-K}
  784.9,                                  ! Density {kg/m3}
  830,                                    ! Specific Heat {J/kg-K}
  0.9,                                    ! Thermal Absorptance
  0.92,                                   ! Solar Absorptance
  0.92;                                   ! Visible Absorptance

OS:Material,
  {092ba6f3-441f-4ff4-b389-aa2847d3ee78}, ! Handle
  1/2IN Gypsum Bottom,                    ! Name
  Smooth,                                 ! Roughness
  0.01271,                                ! Thickness {m}
  0.16,                                   ! Conductivity {W/m-K}
  784.9,                                  ! Density {kg/m3}
  830,                                    ! Specific Heat {J/kg-K}
  0.9,                                    ! Thermal Absorptance
  0.92,                                   ! Solar Absorptance
  0.92;                                   ! Visible Absorptance

OS:ComponentCost:LineItem,
  {9cfee704-1dca-4905-9455-8d60da8fea9d}, ! Handle
  90.1-2007 Res 7A Attic Floor,           ! Name
  ,                                       ! Type
  Construction,                           ! Line Item Type
  90.1-2007 Res 7A Attic Floor,           ! Item Name
  ,                                       ! Object End Use Key
  ,                                       ! Quantity {dimensionless}
  35.009,                                 ! Material Cost {$}
  CostPerArea;                            ! Material Cost Units

OS:Construction,
  {51d6b0e2-90ab-4e1e-bbde-3859b73fdf5a}, ! Handle
  90.1-2007 Res 7A Attic Floor,           ! Name
  ,                                       ! Surface Rendering Name
  {3312e229-4b71-4137-9389-edd9c507c3c1}, ! Layer 1
  {2c14856e-8298-40f8-a192-e50d485ec7e2}, ! Layer 2
  {092ba6f3-441f-4ff4-b389-aa2847d3ee78}; ! Layer 3

