
OS:Version,
  {8e3cf55f-a4bb-4ab6-aa1a-ec90c25c3b18}, !- Handle
  1.1.0;                                  !- Version Identifier

OS:Construction,
  {54650124-c39f-4126-a23c-a9194fbaf1c3}, !- Handle
  Sgl Ref-A-M Clr 6mm,                    !- Name
  ,                                       !- Surface Rendering Name
  {95aa41f5-0be2-4012-9005-e343330c32da}; !- Layer 1

OS:WindowMaterial:Glazing,
  {95aa41f5-0be2-4012-9005-e343330c32da}, !- Handle
  REF A CLEAR MID 6MM,                    !- Name
  SpectralAverage,                        !- Optical Data Type
  ,                                       !- Window Glass Spectral Data Set Name
  0.006,                                  !- Thickness {m}
  0.11,                                   !- Solar Transmittance at Normal Incidence
  0.27,                                   !- Front Side Solar Reflectance at Normal Incidence
  0.43,                                   !- Back Side Solar Reflectance at Normal Incidence
  0.14,                                   !- Visible Transmittance at Normal Incidence
  0.31,                                   !- Front Side Visible Reflectance at Normal Incidence
  0.35,                                   !- Back Side Visible Reflectance at Normal Incidence
  0,                                      !- Infrared Transmittance at Normal Incidence
  0.84,                                   !- Front Side Infrared Hemispherical Emissivity
  0.47,                                   !- Back Side Infrared Hemispherical Emissivity
  0.9;                                    !- Conductivity {W/m-K}

