
OS:Version,
  {166665e3-9dff-4ba9-8d49-6956e1ddaa7c}, !- Handle
  1.1.0;                                  !- Version Identifier

OS:Construction,
  {883d7469-664d-4e45-9654-505513b641c5}, !- Handle
  Sgl Ref-A-M Clr 6mm,                    !- Name
  ,                                       !- Surface Rendering Name
  {1d85078c-25a0-42dc-ac7b-7a32b44d637c}; !- Layer 1

OS:WindowMaterial:Glazing,
  {1d85078c-25a0-42dc-ac7b-7a32b44d637c}, !- Handle
  REF A CLEAR MID 6MM,                    !- Name
  SpectralAverage,                        !- Optical Data Type
  ,                                       !- Window Glass Spectral Data Set Name
  0.006,                                  !- Thickness {m}
  0.11,                                   !- Solar Transmittance at Normal Incidence
  0.27,                                   !- Front Side Solar Reflectance at Normal Incidence
  0.43,                                   !- Back Side Solar Reflectance at Normal Incidence
  0.14,                                   !- Visible Transmittance at Normal Incidence
  0.31,                                   !- Front Side Visible Reflectance at Normal Incidence
  0.35,                                   !- Back Side Visible Reflectance at Normal Incidence
  0,                                      !- Infrared Transmittance at Normal Incidence
  0.84,                                   !- Front Side Infrared Hemispherical Emissivity
  0.47,                                   !- Back Side Infrared Hemispherical Emissivity
  0.9;                                    !- Conductivity {W/m-K}

OS:ComponentData,
  {e018e1bc-4a52-4fb5-88b2-08648db9573f}, !- Handle
  Component Data 1,                       !- Name
  {5f12a6e7-abe5-400c-9d6e-ff0071744af4}, !- UUID
  {a7a74516-d547-4693-b803-cf24fd1b4185}, !- Version UUID
  1384380189,                             !- Creation Timestamp
  1384380189,                             !- Version Timestamp
  {883d7469-664d-4e45-9654-505513b641c5}, !- Name of Object 1
  {1d85078c-25a0-42dc-ac7b-7a32b44d637c}; !- Name of Object 2

