
OS:Version,
  {2cca8147-bc08-4a14-bfff-4fa388ecd5a6}, ! Handle
  0.9.3;                                  ! Version Identifier

OS:Construction,
  {443affdc-39e7-48ba-b98b-10350ff7d420}, ! Handle
  90.1-2007 Res 4B Window Nonmetal framing, ! Name
  ,                                       ! Surface Rendering Name
  {5de4061e-c8bc-4f70-b860-1b4bf2083fc9}; ! Layer 1

OS:WindowMaterial:Glazing,
  {5de4061e-c8bc-4f70-b860-1b4bf2083fc9}, ! Handle
  Theoretical Glass [179],                ! Name
  SpectralAverage,                        ! Optical Data Type
  ,                                       ! Window Glass Spectral Data Set Name
  0.003,                                  ! Thickness {m}
  0.395512,                               ! Solar Transmittance at Normal Incidence
  0.554488,                               ! Front Side Solar Reflectance at Normal Incidence
  0.554488,                               ! Back Side Solar Reflectance at Normal Incidence
  0.507883,                               ! Visible Transmittance at Normal Incidence
  0.442117,                               ! Front Side Visible Reflectance at Normal Incidence
  0.442117,                               ! Back Side Visible Reflectance at Normal Incidence
  0,                                      ! Infrared Transmittance at Normal Incidence
  0.9,                                    ! Front Side Infrared Hemispherical Emissivity
  0.9,                                    ! Back Side Infrared Hemispherical Emissivity
  0.0107603;                              ! Conductivity {W/m-K}

OS:ComponentCost:LineItem,
  {b53adeb9-4ac1-4da0-ae8a-4452409c605f}, ! Handle
  90.1-2007 Res 4B Window Nonmetal framing, ! Name
  ,                                       ! Type
  Construction,                           ! Line Item Type
  90.1-2007 Res 4B Window Nonmetal framing, ! Item Name
  ,                                       ! Object End Use Key
  ,                                       ! Quantity {dimensionless}
  512.02,                                 ! Material Cost {$}
  CostPerArea;                            ! Material Cost Units

