
OS:Version,
  {2b9ea3aa-ccef-4edd-80db-0f1f22246490}, ! Handle
  0.9.3;                                  ! Version Identifier

OS:Construction,
  {d4a5e5a4-2d7a-4e1e-bcd1-0a6dced296cd}, ! Handle
  90.1-2007 Res 4B Window Nonmetal framing, ! Name
  ,                                       ! Surface Rendering Name
  {f340397d-4fbb-4c71-a3e5-e6859e393694}; ! Layer 1

OS:WindowMaterial:Glazing,
  {f340397d-4fbb-4c71-a3e5-e6859e393694}, ! Handle
  Theoretical Glass [179],                ! Name
  SpectralAverage,                        ! Optical Data Type
  ,                                       ! Window Glass Spectral Data Set Name
  0.003,                                  ! Thickness {m}
  0.395512,                               ! Solar Transmittance at Normal Incidence
  0.554488,                               ! Front Side Solar Reflectance at Normal Incidence
  0.554488,                               ! Back Side Solar Reflectance at Normal Incidence
  0.507883,                               ! Visible Transmittance at Normal Incidence
  0.442117,                               ! Front Side Visible Reflectance at Normal Incidence
  0.442117,                               ! Back Side Visible Reflectance at Normal Incidence
  0,                                      ! Infrared Transmittance at Normal Incidence
  0.9,                                    ! Front Side Infrared Hemispherical Emissivity
  0.9,                                    ! Back Side Infrared Hemispherical Emissivity
  0.0107603;                              ! Conductivity {W/m-K}

OS:ComponentCost:LineItem,
  {468f5779-eedd-444d-9933-014a2b078724}, ! Handle
  90.1-2007 Res 4B Window Nonmetal framing, ! Name
  ,                                       ! Type
  Construction,                           ! Line Item Type
  90.1-2007 Res 4B Window Nonmetal framing, ! Item Name
  ,                                       ! Object End Use Key
  ,                                       ! Quantity {dimensionless}
  512.02,                                 ! Material Cost {$}
  CostPerArea;                            ! Material Cost Units

OS:ComponentData,
  {d85a3dbf-0a3f-4668-80a2-62b40b6de566}, ! Handle
  Component Data 1,                       ! Name
  {918764bc-8589-4364-b3da-0d5b027c3191}, ! UUID
  {cea66b19-c888-41b3-af10-480e2242258f}, ! Version UUID
  1363981854,                             ! Creation Timestamp
  1363981854,                             ! Version Timestamp
  {d4a5e5a4-2d7a-4e1e-bcd1-0a6dced296cd}, ! Name of Object 1
  {f340397d-4fbb-4c71-a3e5-e6859e393694}, ! Name of Object 2
  {468f5779-eedd-444d-9933-014a2b078724}; ! Name of Object 3

