
OS:Version,
  {ebdef318-1486-4017-9cf0-b5c46df37f69}, ! Handle
  0.9.3;                                  ! Version Identifier

OS:Construction,
  {57303eda-5360-457a-a405-1658ec83abb9}, ! Handle
  90.1-2001 Nonres B20 Ext Wall Wood-Framed and Other, ! Name
  ,                                       ! Surface Rendering Name
  {7782dede-13c6-4d63-82a4-d1bbf06be2b4}, ! Layer 1
  {f662cbb6-294d-4a48-a7ce-a9bdb1df27c1}, ! Layer 2
  {eb949100-eec8-4db5-bb7b-ab1d2af67c34}; ! Layer 3

OS:Material,
  {7782dede-13c6-4d63-82a4-d1bbf06be2b4}, ! Handle
  Wood Siding,                            ! Name
  MediumSmooth,                           ! Roughness
  0.01,                                   ! Thickness {m}
  0.11,                                   ! Conductivity {W/m-K}
  544.62,                                 ! Density {kg/m3}
  1210,                                   ! Specific Heat {J/kg-K}
  0.9,                                    ! Thermal Absorptance
  0.78,                                   ! Solar Absorptance
  0.78;                                   ! Visible Absorptance

OS:Material,
  {f662cbb6-294d-4a48-a7ce-a9bdb1df27c1}, ! Handle
  Wall Insulation [2],                    ! Name
  MediumRough,                            ! Roughness
  0.0746874,                              ! Thickness {m}
  0.045,                                  ! Conductivity {W/m-K}
  265,                                    ! Density {kg/m3}
  836.8,                                  ! Specific Heat {J/kg-K}
  0.9,                                    ! Thermal Absorptance
  0.7,                                    ! Solar Absorptance
  0.7;                                    ! Visible Absorptance

OS:Material,
  {eb949100-eec8-4db5-bb7b-ab1d2af67c34}, ! Handle
  1/2IN Gypsum,                           ! Name
  Smooth,                                 ! Roughness
  0.01271,                                ! Thickness {m}
  0.16,                                   ! Conductivity {W/m-K}
  784.9,                                  ! Density {kg/m3}
  830,                                    ! Specific Heat {J/kg-K}
  0.9,                                    ! Thermal Absorptance
  0.92,                                   ! Solar Absorptance
  0.92;                                   ! Visible Absorptance

OS:ComponentCost:LineItem,
  {22fba76b-23b2-4de6-bc72-9eafddc63f20}, ! Handle
  90.1-2001 Nonres B20 Ext Wall Wood-Framed and Other, ! Name
  ,                                       ! Type
  Construction,                           ! Line Item Type
  90.1-2001 Nonres B20 Ext Wall Wood-Framed and Other, ! Item Name
  ,                                       ! Object End Use Key
  ,                                       ! Quantity {dimensionless}
  73.056,                                 ! Material Cost {$}
  CostPerArea;                            ! Material Cost Units

