
OS:Version,
  {55efd911-9fa4-4c84-b55f-640b463fbcd9}, ! Handle
  0.9.3;                                  ! Version Identifier

OS:Construction,
  {0ffb1a29-4643-4403-b315-6cae5e72c9d1}, ! Handle
  90.1-2004 Res 7A Ext Slab Unheated - 4in Slab with Carpet, ! Name
  ,                                       ! Surface Rendering Name
  {611c1370-3e60-4e63-8c70-a7747f88ce60}, ! Layer 1
  {1d9a9840-95e3-4ca0-bcb1-08dd47651261}; ! Layer 2

OS:Material,
  {611c1370-3e60-4e63-8c70-a7747f88ce60}, ! Handle
  MAT-CC05 4 HW CONCRETE,                 ! Name
  Rough,                                  ! Roughness
  0.1016,                                 ! Thickness {m}
  1.311,                                  ! Conductivity {W/m-K}
  2240,                                   ! Density {kg/m3}
  836.8,                                  ! Specific Heat {J/kg-K}
  0.9,                                    ! Thermal Absorptance
  0.7,                                    ! Solar Absorptance
  0.7;                                    ! Visible Absorptance

OS:Material:NoMass,
  {1d9a9840-95e3-4ca0-bcb1-08dd47651261}, ! Handle
  CP02 CARPET PAD,                        ! Name
  VeryRough,                              ! Roughness
  0.21648,                                ! Thermal Resistance {m2-K/W}
  0.9,                                    ! Thermal Absorptance
  0.7,                                    ! Solar Absorptance
  0.8;                                    ! Visible Absorptance

OS:ComponentCost:LineItem,
  {a2af7acf-94b8-4dfe-a52a-065e63cc16f5}, ! Handle
  90.1-2004 Res 7A Ext Slab Unheated - 4in Slab with Carpet, ! Name
  ,                                       ! Type
  Construction,                           ! Line Item Type
  90.1-2004 Res 7A Ext Slab Unheated - 4in Slab with Carpet, ! Item Name
  ,                                       ! Object End Use Key
  ,                                       ! Quantity {dimensionless}
  45.52,                                  ! Material Cost {$}
  CostPerArea;                            ! Material Cost Units

