
OS:Version,
  {24522766-8f54-4ff2-a869-899c46a49de0}, ! Handle
  0.9.3;                                  ! Version Identifier

OS:Construction,
  {b05abf80-0d28-45cb-bbcf-5f8742cea6bd}, ! Handle
  189.1-2009 Res 5B Roof Attic and Other, ! Name
  ,                                       ! Surface Rendering Name
  {2cab943c-3f81-4a9d-b52d-f0904521fc5b}, ! Layer 1
  {be69e4ad-905a-442d-af64-604e29e33e69}, ! Layer 2
  {e8bf9073-dd98-4964-a5ab-82277adf795d}, ! Layer 3
  {3bfaf504-34e7-427c-87e4-479256aa709e}; ! Layer 4

OS:Material,
  {2cab943c-3f81-4a9d-b52d-f0904521fc5b}, ! Handle
  Wood Shingles,                          ! Name
  VeryRough,                              ! Roughness
  0.0178,                                 ! Thickness {m}
  0.115,                                  ! Conductivity {W/m-K}
  513,                                    ! Density {kg/m3}
  1255,                                   ! Specific Heat {J/kg-K}
  0.9,                                    ! Thermal Absorptance
  0.78,                                   ! Solar Absorptance
  0.78;                                   ! Visible Absorptance

OS:Material,
  {be69e4ad-905a-442d-af64-604e29e33e69}, ! Handle
  1IN Wood Decking,                       ! Name
  MediumSmooth,                           ! Roughness
  0.0254,                                 ! Thickness {m}
  0.1211,                                 ! Conductivity {W/m-K}
  593,                                    ! Density {kg/m3}
  2510,                                   ! Specific Heat {J/kg-K}
  0.9,                                    ! Thermal Absorptance
  0.78,                                   ! Solar Absorptance
  0.78;                                   ! Visible Absorptance

OS:Material,
  {e8bf9073-dd98-4964-a5ab-82277adf795d}, ! Handle
  Roof Insulation [23],                   ! Name
  MediumRough,                            ! Roughness
  0.375211,                               ! Thickness {m}
  0.049,                                  ! Conductivity {W/m-K}
  265,                                    ! Density {kg/m3}
  836.8,                                  ! Specific Heat {J/kg-K}
  0.9,                                    ! Thermal Absorptance
  0.7,                                    ! Solar Absorptance
  0.7;                                    ! Visible Absorptance

OS:Material,
  {3bfaf504-34e7-427c-87e4-479256aa709e}, ! Handle
  1/2IN Gypsum,                           ! Name
  Smooth,                                 ! Roughness
  0.01271,                                ! Thickness {m}
  0.16,                                   ! Conductivity {W/m-K}
  784.9,                                  ! Density {kg/m3}
  830,                                    ! Specific Heat {J/kg-K}
  0.9,                                    ! Thermal Absorptance
  0.92,                                   ! Solar Absorptance
  0.92;                                   ! Visible Absorptance

OS:ComponentCost:LineItem,
  {b6d869f3-42ff-45d2-9a4e-1b2c85a07012}, ! Handle
  189.1-2009 Res 5B Roof Attic and Other, ! Name
  ,                                       ! Type
  Construction,                           ! Line Item Type
  189.1-2009 Res 5B Roof Attic and Other, ! Item Name
  ,                                       ! Object End Use Key
  ,                                       ! Quantity {dimensionless}
  36.871,                                 ! Material Cost {$}
  CostPerArea;                            ! Material Cost Units

OS:ComponentData,
  {806e68e3-67ac-48be-b82a-dd7143f8d6cd}, ! Handle
  Component Data 1,                       ! Name
  {54c9099a-14e1-4179-bcc1-0c4906a57095}, ! UUID
  {925de21c-25d8-494e-802c-c5b6d2ccd0a9}, ! Version UUID
  1363980975,                             ! Creation Timestamp
  1363980975,                             ! Version Timestamp
  {b05abf80-0d28-45cb-bbcf-5f8742cea6bd}, ! Name of Object 1
  {2cab943c-3f81-4a9d-b52d-f0904521fc5b}, ! Name of Object 2
  {be69e4ad-905a-442d-af64-604e29e33e69}, ! Name of Object 3
  {e8bf9073-dd98-4964-a5ab-82277adf795d}, ! Name of Object 4
  {3bfaf504-34e7-427c-87e4-479256aa709e}, ! Name of Object 5
  {b6d869f3-42ff-45d2-9a4e-1b2c85a07012}; ! Name of Object 6

