
OS:Version,
  {86b78830-b43c-418a-9678-e2152ba07fb0}, ! Handle
  0.9.3;                                  ! Version Identifier

OS:ComponentCost:LineItem,
  {33741133-56da-4312-9bca-ff4a82b95a32}, ! Handle
  90.1-1999 Nonres B2 Ext Slab Unheated - 4in Slab with Carpet, ! Name
  ,                                       ! Type
  Construction,                           ! Line Item Type
  90.1-1999 Nonres B2 Ext Slab Unheated - 4in Slab with Carpet, ! Item Name
  ,                                       ! Object End Use Key
  ,                                       ! Quantity {dimensionless}
  45.52,                                  ! Material Cost {$}
  CostPerArea;                            ! Material Cost Units

OS:Construction,
  {d64ece7a-3388-4ec8-915d-31a20855ad0f}, ! Handle
  90.1-1999 Nonres B2 Ext Slab Unheated - 4in Slab with Carpet, ! Name
  ,                                       ! Surface Rendering Name
  {8dc84cd3-f340-4da9-958f-14bc6e94be8e}, ! Layer 1
  {a3663265-72f2-4cb1-8fd0-d087ce4ba159}; ! Layer 2

OS:Material,
  {8dc84cd3-f340-4da9-958f-14bc6e94be8e}, ! Handle
  MAT-CC05 4 HW CONCRETE,                 ! Name
  Rough,                                  ! Roughness
  0.1016,                                 ! Thickness {m}
  1.311,                                  ! Conductivity {W/m-K}
  2240,                                   ! Density {kg/m3}
  836.8,                                  ! Specific Heat {J/kg-K}
  0.9,                                    ! Thermal Absorptance
  0.7,                                    ! Solar Absorptance
  0.7;                                    ! Visible Absorptance

OS:Material:NoMass,
  {a3663265-72f2-4cb1-8fd0-d087ce4ba159}, ! Handle
  CP02 CARPET PAD,                        ! Name
  VeryRough,                              ! Roughness
  0.21648,                                ! Thermal Resistance {m2-K/W}
  0.9,                                    ! Thermal Absorptance
  0.7,                                    ! Solar Absorptance
  0.8;                                    ! Visible Absorptance

