
OS:Version,
  {2e4dd09e-d48b-4be6-994b-b7944965e215}, ! Handle
  0.9.3;                                  ! Version Identifier

OS:Construction,
  {0fc4f5e1-19c3-4684-9c89-9c0c41bb63b4}, ! Handle
  90.1-2001 Nonres B17 Ext Wall Mass,     ! Name
  ,                                       ! Surface Rendering Name
  {4e8befd9-87b4-4948-9170-539fdf78f675}, ! Layer 1
  {c30e4410-c5f4-4f98-8667-060384f25d3d}, ! Layer 2
  {6d316ee9-a1fd-4645-b592-123548bb4f76}, ! Layer 3
  {89dcaa34-bb2e-4001-b194-b55248c671e5}; ! Layer 4

OS:Material,
  {4e8befd9-87b4-4948-9170-539fdf78f675}, ! Handle
  1IN Stucco,                             ! Name
  Smooth,                                 ! Roughness
  0.0253,                                 ! Thickness {m}
  0.6918,                                 ! Conductivity {W/m-K}
  1858,                                   ! Density {kg/m3}
  837,                                    ! Specific Heat {J/kg-K}
  0.9,                                    ! Thermal Absorptance
  0.92,                                   ! Solar Absorptance
  0.92;                                   ! Visible Absorptance

OS:Material,
  {c30e4410-c5f4-4f98-8667-060384f25d3d}, ! Handle
  8IN Concrete HW,                        ! Name
  MediumRough,                            ! Roughness
  0.2033,                                 ! Thickness {m}
  1.7296,                                 ! Conductivity {W/m-K}
  2243,                                   ! Density {kg/m3}
  837,                                    ! Specific Heat {J/kg-K}
  0.9,                                    ! Thermal Absorptance
  0.65,                                   ! Solar Absorptance
  0.65;                                   ! Visible Absorptance

OS:Material,
  {6d316ee9-a1fd-4645-b592-123548bb4f76}, ! Handle
  Wall Insulation [5],                    ! Name
  MediumRough,                            ! Roughness
  0.0453274,                              ! Thickness {m}
  0.0432,                                 ! Conductivity {W/m-K}
  91,                                     ! Density {kg/m3}
  837,                                    ! Specific Heat {J/kg-K}
  0.9,                                    ! Thermal Absorptance
  0.5,                                    ! Solar Absorptance
  0.5;                                    ! Visible Absorptance

OS:Material,
  {89dcaa34-bb2e-4001-b194-b55248c671e5}, ! Handle
  1/2IN Gypsum,                           ! Name
  Smooth,                                 ! Roughness
  0.01271,                                ! Thickness {m}
  0.16,                                   ! Conductivity {W/m-K}
  784.9,                                  ! Density {kg/m3}
  830,                                    ! Specific Heat {J/kg-K}
  0.9,                                    ! Thermal Absorptance
  0.92,                                   ! Solar Absorptance
  0.92;                                   ! Visible Absorptance

OS:ComponentCost:LineItem,
  {bb2c72c4-9620-4932-a3fd-0112bfa2dbeb}, ! Handle
  90.1-2001 Nonres B17 Ext Wall Mass,     ! Name
  ,                                       ! Type
  Construction,                           ! Line Item Type
  90.1-2001 Nonres B17 Ext Wall Mass,     ! Item Name
  ,                                       ! Object End Use Key
  ,                                       ! Quantity {dimensionless}
  61.418,                                 ! Material Cost {$}
  CostPerArea;                            ! Material Cost Units

OS:ComponentData,
  {b28c9267-ea08-4d62-8c86-c4ecbb98cda8}, ! Handle
  Component Data 1,                       ! Name
  {8b38c639-b58f-4998-81b7-924e918dae0a}, ! UUID
  {118de25c-972b-4219-bd91-e5279fc4fe38}, ! Version UUID
  1363981381,                             ! Creation Timestamp
  1363981381,                             ! Version Timestamp
  {0fc4f5e1-19c3-4684-9c89-9c0c41bb63b4}, ! Name of Object 1
  {4e8befd9-87b4-4948-9170-539fdf78f675}, ! Name of Object 2
  {c30e4410-c5f4-4f98-8667-060384f25d3d}, ! Name of Object 3
  {6d316ee9-a1fd-4645-b592-123548bb4f76}, ! Name of Object 4
  {89dcaa34-bb2e-4001-b194-b55248c671e5}, ! Name of Object 5
  {bb2c72c4-9620-4932-a3fd-0112bfa2dbeb}; ! Name of Object 6

