
OS:Version,
  {7dbcd007-5fa8-4b28-a032-6317bdb8ea2d}, ! Handle
  0.9.3;                                  ! Version Identifier

OS:Construction,
  {ee273dad-23c6-4cee-bf68-3bcf9e1b539c}, ! Handle
  90.1-2001 Nonres B17 Ext Wall Mass,     ! Name
  ,                                       ! Surface Rendering Name
  {d90b5eb0-2092-457d-bfc3-f600aa4404fa}, ! Layer 1
  {8ef4906d-e89a-4439-8bad-4cb1ba4cd8f3}, ! Layer 2
  {aad70903-ba2d-4fd1-b191-3f8f13ce310d}, ! Layer 3
  {88621ba8-cb02-4991-be2b-d2830d1bc0fe}; ! Layer 4

OS:Material,
  {d90b5eb0-2092-457d-bfc3-f600aa4404fa}, ! Handle
  1IN Stucco,                             ! Name
  Smooth,                                 ! Roughness
  0.0253,                                 ! Thickness {m}
  0.6918,                                 ! Conductivity {W/m-K}
  1858,                                   ! Density {kg/m3}
  837,                                    ! Specific Heat {J/kg-K}
  0.9,                                    ! Thermal Absorptance
  0.92,                                   ! Solar Absorptance
  0.92;                                   ! Visible Absorptance

OS:Material,
  {8ef4906d-e89a-4439-8bad-4cb1ba4cd8f3}, ! Handle
  8IN Concrete HW,                        ! Name
  MediumRough,                            ! Roughness
  0.2033,                                 ! Thickness {m}
  1.7296,                                 ! Conductivity {W/m-K}
  2243,                                   ! Density {kg/m3}
  837,                                    ! Specific Heat {J/kg-K}
  0.9,                                    ! Thermal Absorptance
  0.65,                                   ! Solar Absorptance
  0.65;                                   ! Visible Absorptance

OS:Material,
  {aad70903-ba2d-4fd1-b191-3f8f13ce310d}, ! Handle
  Wall Insulation [5],                    ! Name
  MediumRough,                            ! Roughness
  0.0453274,                              ! Thickness {m}
  0.0432,                                 ! Conductivity {W/m-K}
  91,                                     ! Density {kg/m3}
  837,                                    ! Specific Heat {J/kg-K}
  0.9,                                    ! Thermal Absorptance
  0.5,                                    ! Solar Absorptance
  0.5;                                    ! Visible Absorptance

OS:Material,
  {88621ba8-cb02-4991-be2b-d2830d1bc0fe}, ! Handle
  1/2IN Gypsum,                           ! Name
  Smooth,                                 ! Roughness
  0.01271,                                ! Thickness {m}
  0.16,                                   ! Conductivity {W/m-K}
  784.9,                                  ! Density {kg/m3}
  830,                                    ! Specific Heat {J/kg-K}
  0.9,                                    ! Thermal Absorptance
  0.92,                                   ! Solar Absorptance
  0.92;                                   ! Visible Absorptance

OS:ComponentCost:LineItem,
  {897280b1-406e-449b-9986-aef0f82978f4}, ! Handle
  90.1-2001 Nonres B17 Ext Wall Mass,     ! Name
  ,                                       ! Type
  Construction,                           ! Line Item Type
  90.1-2001 Nonres B17 Ext Wall Mass,     ! Item Name
  ,                                       ! Object End Use Key
  ,                                       ! Quantity {dimensionless}
  61.418,                                 ! Material Cost {$}
  CostPerArea;                            ! Material Cost Units

