
OS:Version,
  {42d48981-f3c5-41e2-a9c9-63ad9ff74310}, ! Handle
  0.9.3;                                  ! Version Identifier

OS:Construction,
  {f3ced3ed-07a0-4c8d-a09f-23fff13ef87c}, ! Handle
  90.1-2001 Res B14 Ext Wall Steel-Framed, ! Name
  ,                                       ! Surface Rendering Name
  {93cd44e3-ff44-44b1-a957-4f61eefe8157}, ! Layer 1
  {f172847f-95a3-4e12-831c-e48d017be837}, ! Layer 2
  {8241a121-020a-4e06-8284-9d0c6a0a9ba2}; ! Layer 3

OS:Material:NoMass,
  {93cd44e3-ff44-44b1-a957-4f61eefe8157}, ! Handle
  MAT-SHEATH,                             ! Name
  Rough,                                  ! Roughness
  0.36256,                                ! Thermal Resistance {m2-K/W}
  0.9,                                    ! Thermal Absorptance
  0.7,                                    ! Solar Absorptance
  0.7;                                    ! Visible Absorptance

OS:Material,
  {f172847f-95a3-4e12-831c-e48d017be837}, ! Handle
  Wall Insulation [6],                    ! Name
  MediumRough,                            ! Roughness
  0.0678449,                              ! Thickness {m}
  0.045,                                  ! Conductivity {W/m-K}
  265,                                    ! Density {kg/m3}
  836.8,                                  ! Specific Heat {J/kg-K}
  0.9,                                    ! Thermal Absorptance
  0.7,                                    ! Solar Absorptance
  0.7;                                    ! Visible Absorptance

OS:Material,
  {8241a121-020a-4e06-8284-9d0c6a0a9ba2}, ! Handle
  1/2IN Gypsum,                           ! Name
  Smooth,                                 ! Roughness
  0.01271,                                ! Thickness {m}
  0.16,                                   ! Conductivity {W/m-K}
  784.9,                                  ! Density {kg/m3}
  830,                                    ! Specific Heat {J/kg-K}
  0.9,                                    ! Thermal Absorptance
  0.92,                                   ! Solar Absorptance
  0.92;                                   ! Visible Absorptance

OS:ComponentCost:LineItem,
  {4a139fcb-bef1-409d-881f-8d2809826302}, ! Handle
  90.1-2001 Res B14 Ext Wall Steel-Framed, ! Name
  ,                                       ! Type
  Construction,                           ! Line Item Type
  90.1-2001 Res B14 Ext Wall Steel-Framed, ! Item Name
  ,                                       ! Object End Use Key
  ,                                       ! Quantity {dimensionless}
  91.749,                                 ! Material Cost {$}
  CostPerArea;                            ! Material Cost Units

