
OS:Version,
  {09fe203e-859c-422d-aa6d-c19db4a784f4}, ! Handle
  0.9.3;                                  ! Version Identifier

OS:Construction,
  {75fd3dd8-e9b2-42e2-a962-8173ef879140}, ! Handle
  90.1-2001 Res B14 Ext Wall Steel-Framed, ! Name
  ,                                       ! Surface Rendering Name
  {ed7698e4-6a0c-4942-90ba-400a144f4a03}, ! Layer 1
  {9d041626-b180-4ff1-9212-b9bcff50ebb1}, ! Layer 2
  {19681ea0-8221-4553-822d-5ad468a3b049}; ! Layer 3

OS:Material:NoMass,
  {ed7698e4-6a0c-4942-90ba-400a144f4a03}, ! Handle
  MAT-SHEATH,                             ! Name
  Rough,                                  ! Roughness
  0.36256,                                ! Thermal Resistance {m2-K/W}
  0.9,                                    ! Thermal Absorptance
  0.7,                                    ! Solar Absorptance
  0.7;                                    ! Visible Absorptance

OS:Material,
  {9d041626-b180-4ff1-9212-b9bcff50ebb1}, ! Handle
  Wall Insulation [6],                    ! Name
  MediumRough,                            ! Roughness
  0.0678449,                              ! Thickness {m}
  0.045,                                  ! Conductivity {W/m-K}
  265,                                    ! Density {kg/m3}
  836.8,                                  ! Specific Heat {J/kg-K}
  0.9,                                    ! Thermal Absorptance
  0.7,                                    ! Solar Absorptance
  0.7;                                    ! Visible Absorptance

OS:Material,
  {19681ea0-8221-4553-822d-5ad468a3b049}, ! Handle
  1/2IN Gypsum,                           ! Name
  Smooth,                                 ! Roughness
  0.01271,                                ! Thickness {m}
  0.16,                                   ! Conductivity {W/m-K}
  784.9,                                  ! Density {kg/m3}
  830,                                    ! Specific Heat {J/kg-K}
  0.9,                                    ! Thermal Absorptance
  0.92,                                   ! Solar Absorptance
  0.92;                                   ! Visible Absorptance

OS:ComponentCost:LineItem,
  {132e35d4-1a9f-4b16-b280-221923f6e1c9}, ! Handle
  90.1-2001 Res B14 Ext Wall Steel-Framed, ! Name
  ,                                       ! Type
  Construction,                           ! Line Item Type
  90.1-2001 Res B14 Ext Wall Steel-Framed, ! Item Name
  ,                                       ! Object End Use Key
  ,                                       ! Quantity {dimensionless}
  91.749,                                 ! Material Cost {$}
  CostPerArea;                            ! Material Cost Units

OS:ComponentData,
  {e036d22a-942d-4012-a3c7-3604c188ba33}, ! Handle
  Component Data 1,                       ! Name
  {664404ab-a821-4780-8461-315d7764fee8}, ! UUID
  {bd7c8cf1-2475-4411-9294-5a6e44e05359}, ! Version UUID
  1363981529,                             ! Creation Timestamp
  1363981529,                             ! Version Timestamp
  {75fd3dd8-e9b2-42e2-a962-8173ef879140}, ! Name of Object 1
  {ed7698e4-6a0c-4942-90ba-400a144f4a03}, ! Name of Object 2
  {9d041626-b180-4ff1-9212-b9bcff50ebb1}, ! Name of Object 3
  {19681ea0-8221-4553-822d-5ad468a3b049}, ! Name of Object 4
  {132e35d4-1a9f-4b16-b280-221923f6e1c9}; ! Name of Object 5

