
OS:Version,
  {8bf9530f-d505-4e08-99b0-9c2ec87b83ac}, ! Handle
  0.9.3;                                  ! Version Identifier

OS:Material,
  {a5b39248-fbd2-42fb-9630-d078e932c68b}, ! Handle
  Wood Shingles,                          ! Name
  VeryRough,                              ! Roughness
  0.0178,                                 ! Thickness {m}
  0.115,                                  ! Conductivity {W/m-K}
  513,                                    ! Density {kg/m3}
  1255,                                   ! Specific Heat {J/kg-K}
  0.9,                                    ! Thermal Absorptance
  0.78,                                   ! Solar Absorptance
  0.78;                                   ! Visible Absorptance

OS:Material,
  {f91c2c08-1a26-4917-a0fd-2987becef699}, ! Handle
  Roof Insulation [5],                    ! Name
  MediumRough,                            ! Roughness
  0.286906,                               ! Thickness {m}
  0.049,                                  ! Conductivity {W/m-K}
  265,                                    ! Density {kg/m3}
  836.8,                                  ! Specific Heat {J/kg-K}
  0.9,                                    ! Thermal Absorptance
  0.7,                                    ! Solar Absorptance
  0.7;                                    ! Visible Absorptance

OS:Material,
  {43a181f9-fcf8-4e80-8bd0-54eab6cc4c56}, ! Handle
  1IN Wood Decking,                       ! Name
  MediumSmooth,                           ! Roughness
  0.0254,                                 ! Thickness {m}
  0.1211,                                 ! Conductivity {W/m-K}
  593,                                    ! Density {kg/m3}
  2510,                                   ! Specific Heat {J/kg-K}
  0.9,                                    ! Thermal Absorptance
  0.78,                                   ! Solar Absorptance
  0.78;                                   ! Visible Absorptance

OS:Construction,
  {0960e3c0-4f1b-40ff-b9f6-839271fbd900}, ! Handle
  AEDG-SmOffice 4B Roof Attic and Other,  ! Name
  ,                                       ! Surface Rendering Name
  {a5b39248-fbd2-42fb-9630-d078e932c68b}, ! Layer 1
  {43a181f9-fcf8-4e80-8bd0-54eab6cc4c56}, ! Layer 2
  {f91c2c08-1a26-4917-a0fd-2987becef699}, ! Layer 3
  {33036d0e-2f1d-4377-b08b-0525a0a5c56a}; ! Layer 4

OS:Material,
  {33036d0e-2f1d-4377-b08b-0525a0a5c56a}, ! Handle
  1/2IN Gypsum,                           ! Name
  Smooth,                                 ! Roughness
  0.01271,                                ! Thickness {m}
  0.16,                                   ! Conductivity {W/m-K}
  784.9,                                  ! Density {kg/m3}
  830,                                    ! Specific Heat {J/kg-K}
  0.9,                                    ! Thermal Absorptance
  0.92,                                   ! Solar Absorptance
  0.92;                                   ! Visible Absorptance

OS:ComponentCost:LineItem,
  {55a7bf67-2bd4-472f-8a7e-50a3578bf20e}, ! Handle
  AEDG-SmOffice 4B Roof Attic and Other,  ! Name
  ,                                       ! Type
  Construction,                           ! Line Item Type
  AEDG-SmOffice 4B Roof Attic and Other,  ! Item Name
  ,                                       ! Object End Use Key
  ,                                       ! Quantity {dimensionless}
  34.757,                                 ! Material Cost {$}
  CostPerArea;                            ! Material Cost Units

