
OS:Version,
  {93b2b571-49fc-4a81-9765-ee2b77081f4f}, ! Handle
  0.9.3;                                  ! Version Identifier

OS:Construction,
  {63ced5f8-aedc-464f-b17f-fd26e713a8d7}, ! Handle
  AEDG-SmOffice 6B Ext Slab Unheated - 4in Slab without Carpet, ! Name
  ,                                       ! Surface Rendering Name
  {aaccf3d6-3154-4bc0-a9f8-4ccaa25c1ff3}; ! Layer 1

OS:Material,
  {aaccf3d6-3154-4bc0-a9f8-4ccaa25c1ff3}, ! Handle
  MAT-CC05 4 HW CONCRETE,                 ! Name
  Rough,                                  ! Roughness
  0.1016,                                 ! Thickness {m}
  1.311,                                  ! Conductivity {W/m-K}
  2240,                                   ! Density {kg/m3}
  836.8,                                  ! Specific Heat {J/kg-K}
  0.9,                                    ! Thermal Absorptance
  0.7,                                    ! Solar Absorptance
  0.7;                                    ! Visible Absorptance

OS:ComponentCost:LineItem,
  {64b2fc9c-aac5-410b-9306-225dd1125222}, ! Handle
  AEDG-SmOffice 6B Ext Slab Unheated - 4in Slab without Carpet, ! Name
  ,                                       ! Type
  Construction,                           ! Line Item Type
  AEDG-SmOffice 6B Ext Slab Unheated - 4in Slab without Carpet, ! Item Name
  ,                                       ! Object End Use Key
  ,                                       ! Quantity {dimensionless}
  45.52,                                  ! Material Cost {$}
  CostPerArea;                            ! Material Cost Units

