
OS:Version,
  {9b57e275-b56a-45ad-83fd-208f9dc809ce}, ! Handle
  0.9.3;                                  ! Version Identifier

OS:Construction,
  {21709cba-b470-4bda-b08c-9c8ca756ea89}, ! Handle
  90.1 Windows Window Fixed 2434 Brk-ClrMpr-Ins-ClrSpe, ! Name
  ,                                       ! Surface Rendering Name
  {905add74-d0ca-4aff-b082-e4536386ada1}; ! Layer 1

OS:WindowMaterial:Glazing,
  {905add74-d0ca-4aff-b082-e4536386ada1}, ! Handle
  Theoretical Glass [382],                ! Name
  SpectralAverage,                        ! Optical Data Type
  ,                                       ! Window Glass Spectral Data Set Name
  0.003,                                  ! Thickness {m}
  0.374497,                               ! Solar Transmittance at Normal Incidence
  0.575503,                               ! Front Side Solar Reflectance at Normal Incidence
  0.575503,                               ! Back Side Solar Reflectance at Normal Incidence
  0.390045,                               ! Visible Transmittance at Normal Incidence
  0.559955,                               ! Front Side Visible Reflectance at Normal Incidence
  0.559955,                               ! Back Side Visible Reflectance at Normal Incidence
  0,                                      ! Infrared Transmittance at Normal Incidence
  0.9,                                    ! Front Side Infrared Hemispherical Emissivity
  0.9,                                    ! Back Side Infrared Hemispherical Emissivity
  0.0125205;                              ! Conductivity {W/m-K}

OS:ComponentCost:LineItem,
  {2e9bd678-d84f-4d21-8e6f-f1c510295a12}, ! Handle
  90.1 Windows Window Fixed 2434 Brk-ClrMpr-Ins-ClrSpe, ! Name
  ,                                       ! Type
  Construction,                           ! Line Item Type
  90.1 Windows Window Fixed 2434 Brk-ClrMpr-Ins-ClrSpe, ! Item Name
  ,                                       ! Object End Use Key
  ,                                       ! Quantity {dimensionless}
  0,                                      ! Material Cost {$}
  CostPerArea;                            ! Material Cost Units

