
OS:Version,
  {11b571f6-c6cd-4561-9c08-d519fa07923d}, ! Handle
  0.9.3;                                  ! Version Identifier

OS:Construction,
  {13116088-0d30-4b8a-8d8d-722ccc8237ab}, ! Handle
  90.1 Windows Window Fixed 2434 Brk-ClrMpr-Ins-ClrSpe, ! Name
  ,                                       ! Surface Rendering Name
  {d9311748-5401-4855-baf8-7e35d4e1caa1}; ! Layer 1

OS:WindowMaterial:Glazing,
  {d9311748-5401-4855-baf8-7e35d4e1caa1}, ! Handle
  Theoretical Glass [382],                ! Name
  SpectralAverage,                        ! Optical Data Type
  ,                                       ! Window Glass Spectral Data Set Name
  0.003,                                  ! Thickness {m}
  0.374497,                               ! Solar Transmittance at Normal Incidence
  0.575503,                               ! Front Side Solar Reflectance at Normal Incidence
  0.575503,                               ! Back Side Solar Reflectance at Normal Incidence
  0.390045,                               ! Visible Transmittance at Normal Incidence
  0.559955,                               ! Front Side Visible Reflectance at Normal Incidence
  0.559955,                               ! Back Side Visible Reflectance at Normal Incidence
  0,                                      ! Infrared Transmittance at Normal Incidence
  0.9,                                    ! Front Side Infrared Hemispherical Emissivity
  0.9,                                    ! Back Side Infrared Hemispherical Emissivity
  0.0125205;                              ! Conductivity {W/m-K}

OS:ComponentCost:LineItem,
  {8d290b80-7c69-4747-8bef-3f9e1701690b}, ! Handle
  90.1 Windows Window Fixed 2434 Brk-ClrMpr-Ins-ClrSpe, ! Name
  ,                                       ! Type
  Construction,                           ! Line Item Type
  90.1 Windows Window Fixed 2434 Brk-ClrMpr-Ins-ClrSpe, ! Item Name
  ,                                       ! Object End Use Key
  ,                                       ! Quantity {dimensionless}
  0,                                      ! Material Cost {$}
  CostPerArea;                            ! Material Cost Units

OS:ComponentData,
  {a1860a23-3e9a-497b-88fd-cccfb6750852}, ! Handle
  Component Data 1,                       ! Name
  {6bdd25e9-7a9a-42f6-94d0-c02fcf115272}, ! UUID
  {e86e02a4-50cc-41f0-9c1c-761a2d97e1cb}, ! Version UUID
  1363981012,                             ! Creation Timestamp
  1363981012,                             ! Version Timestamp
  {13116088-0d30-4b8a-8d8d-722ccc8237ab}, ! Name of Object 1
  {d9311748-5401-4855-baf8-7e35d4e1caa1}, ! Name of Object 2
  {8d290b80-7c69-4747-8bef-3f9e1701690b}; ! Name of Object 3

