
OS:Version,
  {25a66d69-50b8-44b5-9d49-2283b1e00b86}, ! Handle
  0.9.3;                                  ! Version Identifier

OS:Construction,
  {7cb8a8c4-0475-4451-b509-e5006f63051b}, ! Handle
  90.1-2001 Nonres B12 Window Fixed,      ! Name
  ,                                       ! Surface Rendering Name
  {2594a213-217a-4ff6-a356-5a6162f8c675}; ! Layer 1

OS:WindowMaterial:Glazing,
  {2594a213-217a-4ff6-a356-5a6162f8c675}, ! Handle
  Theoretical Glass [34],                 ! Name
  SpectralAverage,                        ! Optical Data Type
  ,                                       ! Window Glass Spectral Data Set Name
  0.003,                                  ! Thickness {m}
  0.600317,                               ! Solar Transmittance at Normal Incidence
  0.349683,                               ! Front Side Solar Reflectance at Normal Incidence
  0.349683,                               ! Back Side Solar Reflectance at Normal Incidence
  0.671296,                               ! Visible Transmittance at Normal Incidence
  0.278704,                               ! Front Side Visible Reflectance at Normal Incidence
  0.278704,                               ! Back Side Visible Reflectance at Normal Incidence
  0,                                      ! Infrared Transmittance at Normal Incidence
  0.9,                                    ! Front Side Infrared Hemispherical Emissivity
  0.9,                                    ! Back Side Infrared Hemispherical Emissivity
  0.0350116;                              ! Conductivity {W/m-K}

OS:ComponentCost:LineItem,
  {54a94801-201b-41b9-8e8b-579c145c63c6}, ! Handle
  90.1-2001 Nonres B12 Window Fixed,      ! Name
  ,                                       ! Type
  Construction,                           ! Line Item Type
  90.1-2001 Nonres B12 Window Fixed,      ! Item Name
  ,                                       ! Object End Use Key
  ,                                       ! Quantity {dimensionless}
  477.696,                                ! Material Cost {$}
  CostPerArea;                            ! Material Cost Units

OS:ComponentData,
  {1e88bfef-b5e8-46c9-8711-fd2a24cc045b}, ! Handle
  Component Data 1,                       ! Name
  {c56c9e81-487c-4c80-8ce7-0dc853bedfd3}, ! UUID
  {5172f0cd-330e-4c6b-95fa-2865e9cb7eb9}, ! Version UUID
  1363981354,                             ! Creation Timestamp
  1363981354,                             ! Version Timestamp
  {7cb8a8c4-0475-4451-b509-e5006f63051b}, ! Name of Object 1
  {2594a213-217a-4ff6-a356-5a6162f8c675}, ! Name of Object 2
  {54a94801-201b-41b9-8e8b-579c145c63c6}; ! Name of Object 3

