
OS:Version,
  {863b11b0-23be-4e1c-b44d-59dd4fdfeb10}, ! Handle
  0.9.3;                                  ! Version Identifier

OS:Construction,
  {41694412-05e6-4fa6-ba50-cf85e0aceaee}, ! Handle
  90.1-2004 Res 2A Ext Wall Wood-Framed and Other, ! Name
  ,                                       ! Surface Rendering Name
  {3dbbe96b-a204-44db-8e32-fa24368c8e9b}, ! Layer 1
  {ef9641da-7e5c-43d2-893a-d87557e8e4e5}, ! Layer 2
  {1454142a-28f3-4c78-9aef-30ddf143a197}; ! Layer 3

OS:Material,
  {3dbbe96b-a204-44db-8e32-fa24368c8e9b}, ! Handle
  Wood Siding,                            ! Name
  MediumSmooth,                           ! Roughness
  0.01,                                   ! Thickness {m}
  0.11,                                   ! Conductivity {W/m-K}
  544.62,                                 ! Density {kg/m3}
  1210,                                   ! Specific Heat {J/kg-K}
  0.9,                                    ! Thermal Absorptance
  0.78,                                   ! Solar Absorptance
  0.78;                                   ! Visible Absorptance

OS:Material,
  {ef9641da-7e5c-43d2-893a-d87557e8e4e5}, ! Handle
  Wall Insulation [2],                    ! Name
  MediumRough,                            ! Roughness
  0.0746874,                              ! Thickness {m}
  0.045,                                  ! Conductivity {W/m-K}
  265,                                    ! Density {kg/m3}
  836.8,                                  ! Specific Heat {J/kg-K}
  0.9,                                    ! Thermal Absorptance
  0.7,                                    ! Solar Absorptance
  0.7;                                    ! Visible Absorptance

OS:Material,
  {1454142a-28f3-4c78-9aef-30ddf143a197}, ! Handle
  1/2IN Gypsum,                           ! Name
  Smooth,                                 ! Roughness
  0.01271,                                ! Thickness {m}
  0.16,                                   ! Conductivity {W/m-K}
  784.9,                                  ! Density {kg/m3}
  830,                                    ! Specific Heat {J/kg-K}
  0.9,                                    ! Thermal Absorptance
  0.92,                                   ! Solar Absorptance
  0.92;                                   ! Visible Absorptance

OS:ComponentCost:LineItem,
  {d7669b43-4740-42e4-a742-db12ef057799}, ! Handle
  90.1-2004 Res 2A Ext Wall Wood-Framed and Other, ! Name
  ,                                       ! Type
  Construction,                           ! Line Item Type
  90.1-2004 Res 2A Ext Wall Wood-Framed and Other, ! Item Name
  ,                                       ! Object End Use Key
  ,                                       ! Quantity {dimensionless}
  73.056,                                 ! Material Cost {$}
  CostPerArea;                            ! Material Cost Units

OS:ComponentData,
  {5adc4010-1002-400c-90a1-2255b596f8e5}, ! Handle
  Component Data 1,                       ! Name
  {88517295-4c96-49d4-972c-01e6ce3f8c6b}, ! UUID
  {30e4dcd6-c589-4f0d-9af0-07348e864f30}, ! Version UUID
  1363981717,                             ! Creation Timestamp
  1363981717,                             ! Version Timestamp
  {41694412-05e6-4fa6-ba50-cf85e0aceaee}, ! Name of Object 1
  {3dbbe96b-a204-44db-8e32-fa24368c8e9b}, ! Name of Object 2
  {ef9641da-7e5c-43d2-893a-d87557e8e4e5}, ! Name of Object 3
  {1454142a-28f3-4c78-9aef-30ddf143a197}, ! Name of Object 4
  {d7669b43-4740-42e4-a742-db12ef057799}; ! Name of Object 5

