
OS:Version,
  {b3227ac2-8baa-4f61-b1cb-f1e6a29d5b0c}, ! Handle
  0.9.3;                                  ! Version Identifier

OS:WindowMaterial:Glazing,
  {c7cc721c-12e2-4cf6-960b-c342e73394ae}, ! Handle
  Theoretical Glass [190],                ! Name
  SpectralAverage,                        ! Optical Data Type
  ,                                       ! Window Glass Spectral Data Set Name
  0.003,                                  ! Thickness {m}
  0.440193,                               ! Solar Transmittance at Normal Incidence
  0.509807,                               ! Front Side Solar Reflectance at Normal Incidence
  0.509807,                               ! Back Side Solar Reflectance at Normal Incidence
  0.450308,                               ! Visible Transmittance at Normal Incidence
  0.499692,                               ! Front Side Visible Reflectance at Normal Incidence
  0.499692,                               ! Back Side Visible Reflectance at Normal Incidence
  0,                                      ! Infrared Transmittance at Normal Incidence
  0.9,                                    ! Front Side Infrared Hemispherical Emissivity
  0.9,                                    ! Back Side Infrared Hemispherical Emissivity
  0.0457755;                              ! Conductivity {W/m-K}

OS:ComponentCost:LineItem,
  {3e73d91f-ee0e-4aca-b3f3-f91cbf56f33d}, ! Handle
  90.1-2007 Nonres 8A Window Metal framing entrance door, ! Name
  ,                                       ! Type
  Construction,                           ! Line Item Type
  90.1-2007 Nonres 8A Window Metal framing entrance door, ! Item Name
  ,                                       ! Object End Use Key
  ,                                       ! Quantity {dimensionless}
  508.362,                                ! Material Cost {$}
  CostPerArea;                            ! Material Cost Units

OS:Construction,
  {77243390-012e-4217-b8b8-2a8a68fcde39}, ! Handle
  90.1-2007 Nonres 8A Window Metal framing entrance door, ! Name
  ,                                       ! Surface Rendering Name
  {c7cc721c-12e2-4cf6-960b-c342e73394ae}; ! Layer 1

