
OS:Version,
  {62683c18-7bea-4c71-8095-7fce8e4ddf2b}, ! Handle
  0.9.3;                                  ! Version Identifier

OS:ComponentCost:LineItem,
  {86a1337a-c59b-4907-a818-1644e5030212}, ! Handle
  189.1-2009 Nonres 6B Exposed Floor Mass, ! Name
  ,                                       ! Type
  Construction,                           ! Line Item Type
  189.1-2009 Nonres 6B Exposed Floor Mass, ! Item Name
  ,                                       ! Object End Use Key
  ,                                       ! Quantity {dimensionless}
  56.489,                                 ! Material Cost {$}
  CostPerArea;                            ! Material Cost Units

OS:Material:NoMass,
  {a0c47582-d791-4a8c-93a4-e442dc4169a1}, ! Handle
  CP02 CARPET PAD,                        ! Name
  VeryRough,                              ! Roughness
  0.21648,                                ! Thermal Resistance {m2-K/W}
  0.9,                                    ! Thermal Absorptance
  0.7,                                    ! Solar Absorptance
  0.8;                                    ! Visible Absorptance

OS:Construction,
  {43f038fb-597e-41a1-9524-243a57026455}, ! Handle
  189.1-2009 Nonres 6B Exposed Floor Mass, ! Name
  ,                                       ! Surface Rendering Name
  {bc89e6e8-878b-4ebc-a34c-12605110c798}, ! Layer 1
  {52fac4b8-3a83-4590-b198-8af303dfdf28}, ! Layer 2
  {a0c47582-d791-4a8c-93a4-e442dc4169a1}; ! Layer 3

OS:Material,
  {bc89e6e8-878b-4ebc-a34c-12605110c798}, ! Handle
  Floor Insulation [10],                  ! Name
  MediumRough,                            ! Roughness
  0.11289,                                ! Thickness {m}
  0.045,                                  ! Conductivity {W/m-K}
  265,                                    ! Density {kg/m3}
  836.8,                                  ! Specific Heat {J/kg-K}
  0.9,                                    ! Thermal Absorptance
  0.7,                                    ! Solar Absorptance
  0.7;                                    ! Visible Absorptance

OS:Material,
  {52fac4b8-3a83-4590-b198-8af303dfdf28}, ! Handle
  MAT-CC05 8 HW CONCRETE,                 ! Name
  Rough,                                  ! Roughness
  0.20321,                                ! Thickness {m}
  1.311,                                  ! Conductivity {W/m-K}
  2240,                                   ! Density {kg/m3}
  836.8,                                  ! Specific Heat {J/kg-K}
  0.9,                                    ! Thermal Absorptance
  0.7,                                    ! Solar Absorptance
  0.7;                                    ! Visible Absorptance

