
OS:Version,
  {ea3d3bca-45c5-4810-a837-00cd091b6c36}, ! Handle
  0.9.3;                                  ! Version Identifier

OS:Construction,
  {133669f3-0014-4161-89bb-ff2b1e2f5689}, ! Handle
  90.1-2007 Res 8A Attic Floor,           ! Name
  ,                                       ! Surface Rendering Name
  {aef6b336-02ee-45e8-86a2-e90d933aee14}, ! Layer 1
  {562e390b-16da-4041-84a5-bc223978ad71}, ! Layer 2
  {d641fbe4-1caa-4d5e-ae3c-c0922be17c41}; ! Layer 3

OS:Material,
  {aef6b336-02ee-45e8-86a2-e90d933aee14}, ! Handle
  1/2IN Gypsum Top,                       ! Name
  Smooth,                                 ! Roughness
  0.01271,                                ! Thickness {m}
  0.16,                                   ! Conductivity {W/m-K}
  784.9,                                  ! Density {kg/m3}
  830,                                    ! Specific Heat {J/kg-K}
  0.9,                                    ! Thermal Absorptance
  0.92,                                   ! Solar Absorptance
  0.92;                                   ! Visible Absorptance

OS:Material,
  {562e390b-16da-4041-84a5-bc223978ad71}, ! Handle
  AtticFloor Insulation [2],              ! Name
  MediumRough,                            ! Roughness
  0.395847,                               ! Thickness {m}
  0.049,                                  ! Conductivity {W/m-K}
  265,                                    ! Density {kg/m3}
  836.8,                                  ! Specific Heat {J/kg-K}
  0.9,                                    ! Thermal Absorptance
  0.7,                                    ! Solar Absorptance
  0.7;                                    ! Visible Absorptance

OS:Material,
  {d641fbe4-1caa-4d5e-ae3c-c0922be17c41}, ! Handle
  1/2IN Gypsum Bottom,                    ! Name
  Smooth,                                 ! Roughness
  0.01271,                                ! Thickness {m}
  0.16,                                   ! Conductivity {W/m-K}
  784.9,                                  ! Density {kg/m3}
  830,                                    ! Specific Heat {J/kg-K}
  0.9,                                    ! Thermal Absorptance
  0.92,                                   ! Solar Absorptance
  0.92;                                   ! Visible Absorptance

OS:ComponentCost:LineItem,
  {0bf7dac2-ce65-49c7-a0a2-dc4c34a62779}, ! Handle
  90.1-2007 Res 8A Attic Floor,           ! Name
  ,                                       ! Type
  Construction,                           ! Line Item Type
  90.1-2007 Res 8A Attic Floor,           ! Item Name
  ,                                       ! Object End Use Key
  ,                                       ! Quantity {dimensionless}
  37.12,                                  ! Material Cost {$}
  CostPerArea;                            ! Material Cost Units

OS:ComponentData,
  {7bc3e088-4c0d-4d8e-a751-dba62f65448b}, ! Handle
  Component Data 1,                       ! Name
  {b46952a7-47cb-4163-8126-4ad92ed84a34}, ! UUID
  {61b79de2-3cc9-4795-a5e4-91eab305d267}, ! Version UUID
  1363981876,                             ! Creation Timestamp
  1363981876,                             ! Version Timestamp
  {133669f3-0014-4161-89bb-ff2b1e2f5689}, ! Name of Object 1
  {aef6b336-02ee-45e8-86a2-e90d933aee14}, ! Name of Object 2
  {562e390b-16da-4041-84a5-bc223978ad71}, ! Name of Object 3
  {d641fbe4-1caa-4d5e-ae3c-c0922be17c41}, ! Name of Object 4
  {0bf7dac2-ce65-49c7-a0a2-dc4c34a62779}; ! Name of Object 5

