
OS:Version,
  {218be31d-be8e-43b1-a34f-3e87f377e121}, ! Handle
  0.9.3;                                  ! Version Identifier

OS:ComponentCost:LineItem,
  {c26b927e-febd-4ced-b853-2c27a10c8ac0}, ! Handle
  90.1-2007 Res 8A Attic Floor,           ! Name
  ,                                       ! Type
  Construction,                           ! Line Item Type
  90.1-2007 Res 8A Attic Floor,           ! Item Name
  ,                                       ! Object End Use Key
  ,                                       ! Quantity {dimensionless}
  37.12,                                  ! Material Cost {$}
  CostPerArea;                            ! Material Cost Units

OS:Material,
  {370a41df-1527-4c58-ab24-7d787815bfbe}, ! Handle
  AtticFloor Insulation [2],              ! Name
  MediumRough,                            ! Roughness
  0.395847,                               ! Thickness {m}
  0.049,                                  ! Conductivity {W/m-K}
  265,                                    ! Density {kg/m3}
  836.8,                                  ! Specific Heat {J/kg-K}
  0.9,                                    ! Thermal Absorptance
  0.7,                                    ! Solar Absorptance
  0.7;                                    ! Visible Absorptance

OS:Material,
  {bb34e332-a22b-4f61-9386-13d9d6894dda}, ! Handle
  1/2IN Gypsum Bottom,                    ! Name
  Smooth,                                 ! Roughness
  0.01271,                                ! Thickness {m}
  0.16,                                   ! Conductivity {W/m-K}
  784.9,                                  ! Density {kg/m3}
  830,                                    ! Specific Heat {J/kg-K}
  0.9,                                    ! Thermal Absorptance
  0.92,                                   ! Solar Absorptance
  0.92;                                   ! Visible Absorptance

OS:Material,
  {78e0398e-2d46-46d5-b4d8-9dc79b818434}, ! Handle
  1/2IN Gypsum Top,                       ! Name
  Smooth,                                 ! Roughness
  0.01271,                                ! Thickness {m}
  0.16,                                   ! Conductivity {W/m-K}
  784.9,                                  ! Density {kg/m3}
  830,                                    ! Specific Heat {J/kg-K}
  0.9,                                    ! Thermal Absorptance
  0.92,                                   ! Solar Absorptance
  0.92;                                   ! Visible Absorptance

OS:Construction,
  {e9ac6f49-0680-4662-a6aa-1a4b5b3afa7a}, ! Handle
  90.1-2007 Res 8A Attic Floor,           ! Name
  ,                                       ! Surface Rendering Name
  {78e0398e-2d46-46d5-b4d8-9dc79b818434}, ! Layer 1
  {370a41df-1527-4c58-ab24-7d787815bfbe}, ! Layer 2
  {bb34e332-a22b-4f61-9386-13d9d6894dda}; ! Layer 3

