
OS:Version,
  {de6619ac-f3ff-4931-989f-831f5aeaea40}, ! Handle
  0.9.3;                                  ! Version Identifier

OS:ComponentCost:LineItem,
  {61281c81-9b49-4646-a1f5-651911afbac0}, ! Handle
  90.1-1999 Nonres B17 Ext Wall Metal Building, ! Name
  ,                                       ! Type
  Construction,                           ! Line Item Type
  90.1-1999 Nonres B17 Ext Wall Metal Building, ! Item Name
  ,                                       ! Object End Use Key
  ,                                       ! Quantity {dimensionless}
  98.78,                                  ! Material Cost {$}
  CostPerArea;                            ! Material Cost Units

OS:Material,
  {6383d076-7dae-48f8-9497-b341ab920fe4}, ! Handle
  Metal Siding,                           ! Name
  Smooth,                                 ! Roughness
  0.0015,                                 ! Thickness {m}
  44.96,                                  ! Conductivity {W/m-K}
  7688.86,                                ! Density {kg/m3}
  410,                                    ! Specific Heat {J/kg-K}
  0.9,                                    ! Thermal Absorptance
  0.2,                                    ! Solar Absorptance
  0.2;                                    ! Visible Absorptance

OS:Material,
  {9ea099e4-54b6-4690-a53a-4757dceacd8d}, ! Handle
  Wall Insulation,                        ! Name
  MediumRough,                            ! Roughness
  0.0598725,                              ! Thickness {m}
  0.045,                                  ! Conductivity {W/m-K}
  265,                                    ! Density {kg/m3}
  836.8,                                  ! Specific Heat {J/kg-K}
  0.9,                                    ! Thermal Absorptance
  0.7,                                    ! Solar Absorptance
  0.7;                                    ! Visible Absorptance

OS:Material,
  {fc78b519-d071-475a-abd5-0f3fde702a53}, ! Handle
  1/2IN Gypsum,                           ! Name
  Smooth,                                 ! Roughness
  0.01271,                                ! Thickness {m}
  0.16,                                   ! Conductivity {W/m-K}
  784.9,                                  ! Density {kg/m3}
  830,                                    ! Specific Heat {J/kg-K}
  0.9,                                    ! Thermal Absorptance
  0.92,                                   ! Solar Absorptance
  0.92;                                   ! Visible Absorptance

OS:Construction,
  {d9a8977e-6d7c-427f-ab3f-e0c5fb2195b2}, ! Handle
  90.1-1999 Nonres B17 Ext Wall Metal Building, ! Name
  ,                                       ! Surface Rendering Name
  {6383d076-7dae-48f8-9497-b341ab920fe4}, ! Layer 1
  {9ea099e4-54b6-4690-a53a-4757dceacd8d}, ! Layer 2
  {fc78b519-d071-475a-abd5-0f3fde702a53}; ! Layer 3

