
OS:Version,
  {c84c8608-3ebc-4037-9467-14af0b593e48}, ! Handle
  0.9.3;                                  ! Version Identifier

OS:Material,
  {f5039651-1489-4034-b7b5-82d6194e9e5a}, ! Handle
  1IN Wood Decking,                       ! Name
  MediumSmooth,                           ! Roughness
  0.0254,                                 ! Thickness {m}
  0.1211,                                 ! Conductivity {W/m-K}
  593,                                    ! Density {kg/m3}
  2510,                                   ! Specific Heat {J/kg-K}
  0.9,                                    ! Thermal Absorptance
  0.78,                                   ! Solar Absorptance
  0.78;                                   ! Visible Absorptance

OS:Construction,
  {423c5c3a-fc95-408a-aa11-c81902a10677}, ! Handle
  90.1-2001 Res B2 Roof Attic and Other,  ! Name
  ,                                       ! Surface Rendering Name
  {78abafb2-396c-4b7f-942e-2bb7e2fba386}, ! Layer 1
  {f5039651-1489-4034-b7b5-82d6194e9e5a}, ! Layer 2
  {3312aebd-98dc-4099-8806-e9291841efdd}, ! Layer 3
  {d97b0fb2-13bb-4660-8a91-6dea11cc1298}; ! Layer 4

OS:Material,
  {78abafb2-396c-4b7f-942e-2bb7e2fba386}, ! Handle
  Wood Shingles,                          ! Name
  VeryRough,                              ! Roughness
  0.0178,                                 ! Thickness {m}
  0.115,                                  ! Conductivity {W/m-K}
  513,                                    ! Density {kg/m3}
  1255,                                   ! Specific Heat {J/kg-K}
  0.9,                                    ! Thermal Absorptance
  0.78,                                   ! Solar Absorptance
  0.78;                                   ! Visible Absorptance

OS:Material,
  {3312aebd-98dc-4099-8806-e9291841efdd}, ! Handle
  Roof Insulation [5],                    ! Name
  MediumRough,                            ! Roughness
  0.286906,                               ! Thickness {m}
  0.049,                                  ! Conductivity {W/m-K}
  265,                                    ! Density {kg/m3}
  836.8,                                  ! Specific Heat {J/kg-K}
  0.9,                                    ! Thermal Absorptance
  0.7,                                    ! Solar Absorptance
  0.7;                                    ! Visible Absorptance

OS:Material,
  {d97b0fb2-13bb-4660-8a91-6dea11cc1298}, ! Handle
  1/2IN Gypsum,                           ! Name
  Smooth,                                 ! Roughness
  0.01271,                                ! Thickness {m}
  0.16,                                   ! Conductivity {W/m-K}
  784.9,                                  ! Density {kg/m3}
  830,                                    ! Specific Heat {J/kg-K}
  0.9,                                    ! Thermal Absorptance
  0.92,                                   ! Solar Absorptance
  0.92;                                   ! Visible Absorptance

OS:ComponentCost:LineItem,
  {78128667-366b-4a47-91cf-980b4b551c44}, ! Handle
  90.1-2001 Res B2 Roof Attic and Other,  ! Name
  ,                                       ! Type
  Construction,                           ! Line Item Type
  90.1-2001 Res B2 Roof Attic and Other,  ! Item Name
  ,                                       ! Object End Use Key
  ,                                       ! Quantity {dimensionless}
  34.757,                                 ! Material Cost {$}
  CostPerArea;                            ! Material Cost Units

