
OS:Version,
  {e5dad194-5592-480c-87f4-ebf96917d0da}, ! Handle
  0.9.3;                                  ! Version Identifier

OS:ComponentCost:LineItem,
  {b2c202c0-95ac-4087-9a6c-fcafdf50d71c}, ! Handle
  189.1-2009 Res 7A Window Metal framing curtainwall-storefront, ! Name
  ,                                       ! Type
  Construction,                           ! Line Item Type
  189.1-2009 Res 7A Window Metal framing curtainwall-storefront, ! Item Name
  ,                                       ! Object End Use Key
  ,                                       ! Quantity {dimensionless}
  508.362,                                ! Material Cost {$}
  CostPerArea;                            ! Material Cost Units

OS:WindowMaterial:Glazing,
  {e3b4fdc3-8c07-40a2-9098-b8dacd87b20b}, ! Handle
  Theoretical Glass [219],                ! Name
  SpectralAverage,                        ! Optical Data Type
  ,                                       ! Window Glass Spectral Data Set Name
  0.003,                                  ! Thickness {m}
  0.428764,                               ! Solar Transmittance at Normal Incidence
  0.521236,                               ! Front Side Solar Reflectance at Normal Incidence
  0.521236,                               ! Back Side Solar Reflectance at Normal Incidence
  0.450308,                               ! Visible Transmittance at Normal Incidence
  0.499692,                               ! Front Side Visible Reflectance at Normal Incidence
  0.499692,                               ! Back Side Visible Reflectance at Normal Incidence
  0,                                      ! Infrared Transmittance at Normal Incidence
  0.9,                                    ! Front Side Infrared Hemispherical Emissivity
  0.9,                                    ! Back Side Infrared Hemispherical Emissivity
  0.0071399;                              ! Conductivity {W/m-K}

OS:Construction,
  {1ae0d407-e68b-4ff7-96fe-d78c6ee77b9f}, ! Handle
  189.1-2009 Res 7A Window Metal framing curtainwall-storefront, ! Name
  ,                                       ! Surface Rendering Name
  {e3b4fdc3-8c07-40a2-9098-b8dacd87b20b}; ! Layer 1

