
! 
OS:Version,
  {129c3313-3e6f-40f2-be94-84193466fd6d}, !- Handle
  1.13.0;                                 !- Version Identifier


! 
OS:Material,
  {0b45e43b-33ab-476e-bf0c-00c8dfd36f8b}, !- Handle
  Mortero: REVESTIMIENTO MONOCAPA
WEBER: weber.pral arid (0.015 m)
R: 0.0 m2K/W,                             !- Name
  Rough,                                 !- Roughness
  0.015,                                    !- Thickness {m}
  0.35,                                    !- Conductivity {W/m-K}
  1200.0,                                    !- Density {kg/m3}
  800.0,                                    !- Specific Heat {J/kg-K}
  0.9,                                    !- Thermal Absorptance
  0.6,                                    !- Solar Absorptance
  0.6;                                    !- Visible Absorptance

