
OS:Version,
  {80ba79ab-12ec-4640-9ef6-3edc5375c9ea}, ! Handle
  0.9.3;                                  ! Version Identifier

OS:Material,
  {e9b6d2e2-7114-4677-9f5a-bb37807fe2ce}, ! Handle
  1/2IN Gypsum,                           ! Name
  Smooth,                                 ! Roughness
  0.01271,                                ! Thickness {m}
  0.16,                                   ! Conductivity {W/m-K}
  784.9,                                  ! Density {kg/m3}
  830,                                    ! Specific Heat {J/kg-K}
  0.9,                                    ! Thermal Absorptance
  0.92,                                   ! Solar Absorptance
  0.92;                                   ! Visible Absorptance

OS:Construction,
  {ec2acbbf-84c3-4adc-a73a-b014440a5221}, ! Handle
  AEDG-SmOffice 2A Roof Attic and Other,  ! Name
  ,                                       ! Surface Rendering Name
  {abf3f3eb-cfee-456a-a083-908e081d8cac}, ! Layer 1
  {49c96dec-6b55-4736-9201-97f38e6452e3}, ! Layer 2
  {ddceb346-3ecc-44f9-baa1-6a06f2220973}, ! Layer 3
  {e9b6d2e2-7114-4677-9f5a-bb37807fe2ce}; ! Layer 4

OS:Material,
  {abf3f3eb-cfee-456a-a083-908e081d8cac}, ! Handle
  Wood Shingles,                          ! Name
  VeryRough,                              ! Roughness
  0.0178,                                 ! Thickness {m}
  0.115,                                  ! Conductivity {W/m-K}
  513,                                    ! Density {kg/m3}
  1255,                                   ! Specific Heat {J/kg-K}
  0.9,                                    ! Thermal Absorptance
  0.78,                                   ! Solar Absorptance
  0.78;                                   ! Visible Absorptance

OS:Material,
  {49c96dec-6b55-4736-9201-97f38e6452e3}, ! Handle
  1IN Wood Decking,                       ! Name
  MediumSmooth,                           ! Roughness
  0.0254,                                 ! Thickness {m}
  0.1211,                                 ! Conductivity {W/m-K}
  593,                                    ! Density {kg/m3}
  2510,                                   ! Specific Heat {J/kg-K}
  0.9,                                    ! Thermal Absorptance
  0.78,                                   ! Solar Absorptance
  0.78;                                   ! Visible Absorptance

OS:Material,
  {ddceb346-3ecc-44f9-baa1-6a06f2220973}, ! Handle
  Roof Insulation [5],                    ! Name
  MediumRough,                            ! Roughness
  0.286906,                               ! Thickness {m}
  0.049,                                  ! Conductivity {W/m-K}
  265,                                    ! Density {kg/m3}
  836.8,                                  ! Specific Heat {J/kg-K}
  0.9,                                    ! Thermal Absorptance
  0.7,                                    ! Solar Absorptance
  0.7;                                    ! Visible Absorptance

OS:ComponentCost:LineItem,
  {d90eb674-0c4c-4e69-9823-0a03639fb891}, ! Handle
  AEDG-SmOffice 2A Roof Attic and Other,  ! Name
  ,                                       ! Type
  Construction,                           ! Line Item Type
  AEDG-SmOffice 2A Roof Attic and Other,  ! Item Name
  ,                                       ! Object End Use Key
  ,                                       ! Quantity {dimensionless}
  34.757,                                 ! Material Cost {$}
  CostPerArea;                            ! Material Cost Units

