
OS:Version,
  {d426c924-6e33-4721-914f-6bf94a8e0793}, ! Handle
  0.9.3;                                  ! Version Identifier

OS:Construction,
  {7db34caf-6b5a-4dcc-8ce9-7262b0775168}, ! Handle
  90.1-2001 Nonres B8 Int Wall,           ! Name
  ,                                       ! Surface Rendering Name
  {d4818701-e79b-42be-a1db-8b8dc8b837ac}, ! Layer 1
  {d4818701-e79b-42be-a1db-8b8dc8b837ac}; ! Layer 2

OS:Material,
  {d4818701-e79b-42be-a1db-8b8dc8b837ac}, ! Handle
  GP01 1/2 GYPSUM,                        ! Name
  Smooth,                                 ! Roughness
  0.01271,                                ! Thickness {m}
  0.16,                                   ! Conductivity {W/m-K}
  800,                                    ! Density {kg/m3}
  1090,                                   ! Specific Heat {J/kg-K}
  0.9,                                    ! Thermal Absorptance
  0.7,                                    ! Solar Absorptance
  0.5;                                    ! Visible Absorptance

OS:ComponentCost:LineItem,
  {18983361-8fa8-499d-8cac-bd58b877ffea}, ! Handle
  90.1-2001 Nonres B8 Int Wall,           ! Name
  ,                                       ! Type
  Construction,                           ! Line Item Type
  90.1-2001 Nonres B8 Int Wall,           ! Item Name
  ,                                       ! Object End Use Key
  ,                                       ! Quantity {dimensionless}
  0,                                      ! Material Cost {$}
  CostPerArea;                            ! Material Cost Units

OS:ComponentData,
  {3b1c28c0-12dd-4496-ade7-ac14552eb146}, ! Handle
  Component Data 1,                       ! Name
  {ab64a0e5-263a-425d-95e7-9f19158c029a}, ! UUID
  {66bbf4b2-d91a-46e7-9c59-31ce512d78c3}, ! Version UUID
  1363981326,                             ! Creation Timestamp
  1363981326,                             ! Version Timestamp
  {7db34caf-6b5a-4dcc-8ce9-7262b0775168}, ! Name of Object 1
  {d4818701-e79b-42be-a1db-8b8dc8b837ac}, ! Name of Object 2
  {18983361-8fa8-499d-8cac-bd58b877ffea}; ! Name of Object 3

