
OS:Version,
  {04d2ffab-2b3d-4375-ab12-6397087ce154}, ! Handle
  0.9.3;                                  ! Version Identifier

OS:WindowMaterial:Glazing,
  {bfa3ebab-56b7-4723-8a27-e30faeb72542}, ! Handle
  Theoretical Glass [172],                ! Name
  SpectralAverage,                        ! Optical Data Type
  ,                                       ! Window Glass Spectral Data Set Name
  0.003,                                  ! Thickness {m}
  0.238593,                               ! Solar Transmittance at Normal Incidence
  0.711407,                               ! Front Side Solar Reflectance at Normal Incidence
  0.711407,                               ! Back Side Solar Reflectance at Normal Incidence
  0.251212,                               ! Visible Transmittance at Normal Incidence
  0.698788,                               ! Front Side Visible Reflectance at Normal Incidence
  0.698788,                               ! Back Side Visible Reflectance at Normal Incidence
  0,                                      ! Infrared Transmittance at Normal Incidence
  0.93,                                   ! Front Side Infrared Hemispherical Emissivity
  0.93,                                   ! Back Side Infrared Hemispherical Emissivity
  0.288556;                               ! Conductivity {W/m-K}

OS:ComponentCost:LineItem,
  {e35c53ce-ef45-4756-8a17-2bddfb130e82}, ! Handle
  90.1-2007 Nonres 2A Window Metal framing entrance door, ! Name
  ,                                       ! Type
  Construction,                           ! Line Item Type
  90.1-2007 Nonres 2A Window Metal framing entrance door, ! Item Name
  ,                                       ! Object End Use Key
  ,                                       ! Quantity {dimensionless}
  600.037,                                ! Material Cost {$}
  CostPerArea;                            ! Material Cost Units

OS:Construction,
  {f30edb9f-177e-4abc-ba9d-643d65aa7dee}, ! Handle
  90.1-2007 Nonres 2A Window Metal framing entrance door, ! Name
  ,                                       ! Surface Rendering Name
  {bfa3ebab-56b7-4723-8a27-e30faeb72542}; ! Layer 1

