
OS:Version,
  {9948848d-eecd-4e75-ae66-d79ccdae3918}, ! Handle
  0.9.3;                                  ! Version Identifier

OS:Material,
  {fd703556-f915-4d9b-850d-0054b3856157}, ! Handle
  MAT-CC05 8 HW CONCRETE,                 ! Name
  Rough,                                  ! Roughness
  0.20321,                                ! Thickness {m}
  1.311,                                  ! Conductivity {W/m-K}
  2240,                                   ! Density {kg/m3}
  836.8,                                  ! Specific Heat {J/kg-K}
  0.9,                                    ! Thermal Absorptance
  0.7,                                    ! Solar Absorptance
  0.7;                                    ! Visible Absorptance

OS:Material:NoMass,
  {b77a3635-cee0-4e27-8b66-dcc4a3c57aed}, ! Handle
  CP02 CARPET PAD,                        ! Name
  VeryRough,                              ! Roughness
  0.21648,                                ! Thermal Resistance {m2-K/W}
  0.9,                                    ! Thermal Absorptance
  0.7,                                    ! Solar Absorptance
  0.8;                                    ! Visible Absorptance

OS:Construction,
  {0adc6242-7314-448b-a7d8-849efca71cb8}, ! Handle
  189.1-2009 Nonres 2A Ext Slab Unheated - 8in Slab with Carpet, ! Name
  ,                                       ! Surface Rendering Name
  {fd703556-f915-4d9b-850d-0054b3856157}, ! Layer 1
  {b77a3635-cee0-4e27-8b66-dcc4a3c57aed}; ! Layer 2

OS:ComponentCost:LineItem,
  {4c3905e0-95c4-4aca-9fdc-73d0dee0c96c}, ! Handle
  189.1-2009 Nonres 2A Ext Slab Unheated - 8in Slab with Carpet, ! Name
  ,                                       ! Type
  Construction,                           ! Line Item Type
  189.1-2009 Nonres 2A Ext Slab Unheated - 8in Slab with Carpet, ! Item Name
  ,                                       ! Object End Use Key
  ,                                       ! Quantity {dimensionless}
  45.52,                                  ! Material Cost {$}
  CostPerArea;                            ! Material Cost Units

