
OS:Version,
  {bd6a6cd1-3de7-4d4f-a339-8b42188b3b94}, ! Handle
  0.9.3;                                  ! Version Identifier

OS:ComponentCost:LineItem,
  {400dfffe-7af4-4563-9439-c2e05f7e5c05}, ! Handle
  AEDG SHC Nonres 1A Roof IEAD,           ! Name
  ,                                       ! Type
  Construction,                           ! Line Item Type
  AEDG SHC Nonres 1A Roof IEAD,           ! Item Name
  ,                                       ! Object End Use Key
  ,                                       ! Quantity {dimensionless}
  0,                                      ! Material Cost {$}
  CostPerArea;                            ! Material Cost Units

OS:Construction,
  {df8769e8-037b-4fc8-bfff-1f32d78daa20}, ! Handle
  AEDG SHC Nonres 1A Roof IEAD,           ! Name
  ,                                       ! Surface Rendering Name
  {4eb5442f-bb4f-4d6b-9922-7690b3c3f166}, ! Layer 1
  {a2a04a3b-4902-47c1-8f42-ca9b041c2245}, ! Layer 2
  {817f89cb-6110-45c7-8811-32abfc8fd310}; ! Layer 3

OS:Material,
  {4eb5442f-bb4f-4d6b-9922-7690b3c3f166}, ! Handle
  Roof Membrane [1],                      ! Name
  VeryRough,                              ! Roughness
  0.0095,                                 ! Thickness {m}
  0.16,                                   ! Conductivity {W/m-K}
  1121.29,                                ! Density {kg/m3}
  1460,                                   ! Specific Heat {J/kg-K}
  0.9,                                    ! Thermal Absorptance
  0.3,                                    ! Solar Absorptance
  0.3;                                    ! Visible Absorptance

OS:Material,
  {a2a04a3b-4902-47c1-8f42-ca9b041c2245}, ! Handle
  Roof Insulation [31],                   ! Name
  MediumRough,                            ! Roughness
  0.209546,                               ! Thickness {m}
  0.049,                                  ! Conductivity {W/m-K}
  265,                                    ! Density {kg/m3}
  836.8,                                  ! Specific Heat {J/kg-K}
  0.9,                                    ! Thermal Absorptance
  0.7,                                    ! Solar Absorptance
  0.7;                                    ! Visible Absorptance

OS:Material,
  {817f89cb-6110-45c7-8811-32abfc8fd310}, ! Handle
  Metal Decking,                          ! Name
  MediumSmooth,                           ! Roughness
  0.001524,                               ! Thickness {m}
  45.006,                                 ! Conductivity {W/m-K}
  7680,                                   ! Density {kg/m3}
  418.4,                                  ! Specific Heat {J/kg-K}
  0.9,                                    ! Thermal Absorptance
  0.7,                                    ! Solar Absorptance
  0.3;                                    ! Visible Absorptance

