
OS:Version,
  {761c010a-bb3a-461e-a0ed-f9897239320b}, ! Handle
  0.9.3;                                  ! Version Identifier

OS:Material,
  {d28d4adf-3e94-4757-8ae3-478ca5aaf40c}, ! Handle
  Wall Insulation [20],                   ! Name
  MediumRough,                            ! Roughness
  0.128688,                               ! Thickness {m}
  0.045,                                  ! Conductivity {W/m-K}
  265,                                    ! Density {kg/m3}
  836.8,                                  ! Specific Heat {J/kg-K}
  0.9,                                    ! Thermal Absorptance
  0.7,                                    ! Solar Absorptance
  0.7;                                    ! Visible Absorptance

OS:ComponentCost:LineItem,
  {4ebb7c38-c9ac-42f9-90aa-a787a97f7026}, ! Handle
  90.1-2004 Res 5B Ext Wall Metal Building, ! Name
  ,                                       ! Type
  Construction,                           ! Line Item Type
  90.1-2004 Res 5B Ext Wall Metal Building, ! Item Name
  ,                                       ! Object End Use Key
  ,                                       ! Quantity {dimensionless}
  107.702,                                ! Material Cost {$}
  CostPerArea;                            ! Material Cost Units

OS:Material,
  {5acef9be-04a4-4cc9-bc81-ad38b344677a}, ! Handle
  1/2IN Gypsum,                           ! Name
  Smooth,                                 ! Roughness
  0.01271,                                ! Thickness {m}
  0.16,                                   ! Conductivity {W/m-K}
  784.9,                                  ! Density {kg/m3}
  830,                                    ! Specific Heat {J/kg-K}
  0.9,                                    ! Thermal Absorptance
  0.92,                                   ! Solar Absorptance
  0.92;                                   ! Visible Absorptance

OS:Construction,
  {67f9a73a-8269-429c-9b40-fc94f4d21173}, ! Handle
  90.1-2004 Res 5B Ext Wall Metal Building, ! Name
  ,                                       ! Surface Rendering Name
  {7606a3e6-a175-40dc-b39d-4206fda94fd3}, ! Layer 1
  {d28d4adf-3e94-4757-8ae3-478ca5aaf40c}, ! Layer 2
  {5acef9be-04a4-4cc9-bc81-ad38b344677a}; ! Layer 3

OS:Material,
  {7606a3e6-a175-40dc-b39d-4206fda94fd3}, ! Handle
  Metal Siding,                           ! Name
  Smooth,                                 ! Roughness
  0.0015,                                 ! Thickness {m}
  44.96,                                  ! Conductivity {W/m-K}
  7688.86,                                ! Density {kg/m3}
  410,                                    ! Specific Heat {J/kg-K}
  0.9,                                    ! Thermal Absorptance
  0.2,                                    ! Solar Absorptance
  0.2;                                    ! Visible Absorptance

