
OS:Version,
  {5ceb8229-d8c4-471f-b705-e7af5b7c4867}, ! Handle
  0.9.3;                                  ! Version Identifier

OS:ComponentCost:LineItem,
  {fec4a45c-0604-4998-9fea-9a1c0ce99088}, ! Handle
  90.1-2001 Nonres B24 Roof Metal Building, ! Name
  ,                                       ! Type
  Construction,                           ! Line Item Type
  90.1-2001 Nonres B24 Roof Metal Building, ! Item Name
  ,                                       ! Object End Use Key
  ,                                       ! Quantity {dimensionless}
  42.184,                                 ! Material Cost {$}
  CostPerArea;                            ! Material Cost Units

OS:Construction,
  {2c3c8838-ecb0-46b7-98a4-b1ab16124fab}, ! Handle
  90.1-2001 Nonres B24 Roof Metal Building, ! Name
  ,                                       ! Surface Rendering Name
  {7883e783-1c48-4123-a9e5-8447082d6d82}, ! Layer 1
  {37ded5fc-f426-4ddb-baa8-f9be48fb4499}; ! Layer 2

OS:Material,
  {7883e783-1c48-4123-a9e5-8447082d6d82}, ! Handle
  Metal Roofing,                          ! Name
  MediumSmooth,                           ! Roughness
  0.001524,                               ! Thickness {m}
  45.006,                                 ! Conductivity {W/m-K}
  7680,                                   ! Density {kg/m3}
  418.4,                                  ! Specific Heat {J/kg-K}
  0.9,                                    ! Thermal Absorptance
  0.7,                                    ! Solar Absorptance
  0.3;                                    ! Visible Absorptance

OS:Material,
  {37ded5fc-f426-4ddb-baa8-f9be48fb4499}, ! Handle
  Roof Insulation [8],                    ! Name
  MediumRough,                            ! Roughness
  0.166908,                               ! Thickness {m}
  0.049,                                  ! Conductivity {W/m-K}
  265,                                    ! Density {kg/m3}
  836.8,                                  ! Specific Heat {J/kg-K}
  0.9,                                    ! Thermal Absorptance
  0.7,                                    ! Solar Absorptance
  0.7;                                    ! Visible Absorptance

