
OS:Version,
  {35a67b64-e396-4e05-98f7-8201b70d84bb}, ! Handle
  0.9.3;                                  ! Version Identifier

OS:Construction,
  {947c4338-9d38-4827-a59b-abb406be12e5}, ! Handle
  90.1-1999 Nonres B5 Skylight without Curb, ! Name
  ,                                       ! Surface Rendering Name
  {c85409be-30d1-4249-a67b-8eb69ecd1a2e}; ! Layer 1

OS:WindowMaterial:Glazing,
  {c85409be-30d1-4249-a67b-8eb69ecd1a2e}, ! Handle
  Theoretical Glass [8],                  ! Name
  SpectralAverage,                        ! Optical Data Type
  ,                                       ! Window Glass Spectral Data Set Name
  0.003,                                  ! Thickness {m}
  0.346104,                               ! Solar Transmittance at Normal Incidence
  0.603896,                               ! Front Side Solar Reflectance at Normal Incidence
  0.603896,                               ! Back Side Solar Reflectance at Normal Incidence
  0.376261,                               ! Visible Transmittance at Normal Incidence
  0.573739,                               ! Front Side Visible Reflectance at Normal Incidence
  0.573739,                               ! Back Side Visible Reflectance at Normal Incidence
  0,                                      ! Infrared Transmittance at Normal Incidence
  0.999,                                  ! Front Side Infrared Hemispherical Emissivity
  0.999,                                  ! Back Side Infrared Hemispherical Emissivity
  299.383;                                ! Conductivity {W/m-K}

OS:ComponentCost:LineItem,
  {81351e9c-93ca-4e9c-b7e7-d87ee7a045c5}, ! Handle
  90.1-1999 Nonres B5 Skylight without Curb, ! Name
  ,                                       ! Type
  Construction,                           ! Line Item Type
  90.1-1999 Nonres B5 Skylight without Curb, ! Item Name
  ,                                       ! Object End Use Key
  ,                                       ! Quantity {dimensionless}
  498.248,                                ! Material Cost {$}
  CostPerArea;                            ! Material Cost Units

