
OS:Version,
  {2872f4b9-cea1-4122-9a32-0319418a5014}, ! Handle
  0.9.3;                                  ! Version Identifier

OS:Construction,
  {a5fb6ee9-ac3a-4298-b450-711463c97ad7}, ! Handle
  90.1-2007 Nonres 4B Int Wall,           ! Name
  ,                                       ! Surface Rendering Name
  {067ad3a2-871e-4e9b-a387-0e8274ebc126}, ! Layer 1
  {067ad3a2-871e-4e9b-a387-0e8274ebc126}; ! Layer 2

OS:Material,
  {067ad3a2-871e-4e9b-a387-0e8274ebc126}, ! Handle
  GP01 1/2 GYPSUM,                        ! Name
  Smooth,                                 ! Roughness
  0.01271,                                ! Thickness {m}
  0.16,                                   ! Conductivity {W/m-K}
  800,                                    ! Density {kg/m3}
  1090,                                   ! Specific Heat {J/kg-K}
  0.9,                                    ! Thermal Absorptance
  0.7,                                    ! Solar Absorptance
  0.5;                                    ! Visible Absorptance

OS:ComponentCost:LineItem,
  {546e12b0-097c-4c37-b448-debeb8d180fb}, ! Handle
  90.1-2007 Nonres 4B Int Wall,           ! Name
  ,                                       ! Type
  Construction,                           ! Line Item Type
  90.1-2007 Nonres 4B Int Wall,           ! Item Name
  ,                                       ! Object End Use Key
  ,                                       ! Quantity {dimensionless}
  0,                                      ! Material Cost {$}
  CostPerArea;                            ! Material Cost Units

OS:Material,
  {4a0aa7d6-eee4-4f7d-98fa-b3d966bfd61b}, ! Handle
  GP01 1/2 GYPSUM 1,                      ! Name
  Smooth,                                 ! Roughness
  0.01271,                                ! Thickness {m}
  0.16,                                   ! Conductivity {W/m-K}
  800,                                    ! Density {kg/m3}
  1090,                                   ! Specific Heat {J/kg-K}
  0.9,                                    ! Thermal Absorptance
  0.7,                                    ! Solar Absorptance
  0.5;                                    ! Visible Absorptance

