
OS:Version,
  {5636c13e-a89b-4e6a-b363-5a12e135e0e3}, ! Handle
  0.9.3;                                  ! Version Identifier

OS:Material,
  {8d335d9f-6e23-487a-97fc-99dbcdc891d4}, ! Handle
  Wood Shingles,                          ! Name
  VeryRough,                              ! Roughness
  0.0178,                                 ! Thickness {m}
  0.115,                                  ! Conductivity {W/m-K}
  513,                                    ! Density {kg/m3}
  1255,                                   ! Specific Heat {J/kg-K}
  0.9,                                    ! Thermal Absorptance
  0.78,                                   ! Solar Absorptance
  0.78;                                   ! Visible Absorptance

OS:Material,
  {72aa2c43-8cac-4f0f-ac60-da0a220b3797}, ! Handle
  Roof Insulation [5],                    ! Name
  MediumRough,                            ! Roughness
  0.286906,                               ! Thickness {m}
  0.049,                                  ! Conductivity {W/m-K}
  265,                                    ! Density {kg/m3}
  836.8,                                  ! Specific Heat {J/kg-K}
  0.9,                                    ! Thermal Absorptance
  0.7,                                    ! Solar Absorptance
  0.7;                                    ! Visible Absorptance

OS:ComponentCost:LineItem,
  {78a81084-7898-4a40-8932-00fc7fdd3529}, ! Handle
  90.1-2007 Res 6B Roof Attic and Other,  ! Name
  ,                                       ! Type
  Construction,                           ! Line Item Type
  90.1-2007 Res 6B Roof Attic and Other,  ! Item Name
  ,                                       ! Object End Use Key
  ,                                       ! Quantity {dimensionless}
  34.757,                                 ! Material Cost {$}
  CostPerArea;                            ! Material Cost Units

OS:Material,
  {89852530-537d-41df-ba6c-a85c4557cac8}, ! Handle
  1/2IN Gypsum,                           ! Name
  Smooth,                                 ! Roughness
  0.01271,                                ! Thickness {m}
  0.16,                                   ! Conductivity {W/m-K}
  784.9,                                  ! Density {kg/m3}
  830,                                    ! Specific Heat {J/kg-K}
  0.9,                                    ! Thermal Absorptance
  0.92,                                   ! Solar Absorptance
  0.92;                                   ! Visible Absorptance

OS:Construction,
  {15c7dc0b-8756-482c-a8f1-28dfc68f9bf3}, ! Handle
  90.1-2007 Res 6B Roof Attic and Other,  ! Name
  ,                                       ! Surface Rendering Name
  {8d335d9f-6e23-487a-97fc-99dbcdc891d4}, ! Layer 1
  {2d7420ea-28c4-46cd-a96c-a43a64598242}, ! Layer 2
  {72aa2c43-8cac-4f0f-ac60-da0a220b3797}, ! Layer 3
  {89852530-537d-41df-ba6c-a85c4557cac8}; ! Layer 4

OS:Material,
  {2d7420ea-28c4-46cd-a96c-a43a64598242}, ! Handle
  1IN Wood Decking,                       ! Name
  MediumSmooth,                           ! Roughness
  0.0254,                                 ! Thickness {m}
  0.1211,                                 ! Conductivity {W/m-K}
  593,                                    ! Density {kg/m3}
  2510,                                   ! Specific Heat {J/kg-K}
  0.9,                                    ! Thermal Absorptance
  0.78,                                   ! Solar Absorptance
  0.78;                                   ! Visible Absorptance

