
OS:Version,
  {0127d9a7-4dfb-469b-81f6-4f0ed2995fa4}, ! Handle
  0.9.3;                                  ! Version Identifier

OS:Material:NoMass,
  {44ea768b-5747-4cea-bba9-bd289f3ec3c4}, ! Handle
  CP02 CARPET PAD,                        ! Name
  VeryRough,                              ! Roughness
  0.21648,                                ! Thermal Resistance {m2-K/W}
  0.9,                                    ! Thermal Absorptance
  0.7,                                    ! Solar Absorptance
  0.8;                                    ! Visible Absorptance

OS:Construction,
  {440e1751-ef4a-4c74-b67d-bc9960fbcc38}, ! Handle
  90.1-1999 Res B1 Ext Slab Unheated - 8in Slab with Carpet, ! Name
  ,                                       ! Surface Rendering Name
  {efb4c145-29be-4d17-a5b0-62cca8d49d3d}, ! Layer 1
  {44ea768b-5747-4cea-bba9-bd289f3ec3c4}; ! Layer 2

OS:Material,
  {efb4c145-29be-4d17-a5b0-62cca8d49d3d}, ! Handle
  MAT-CC05 8 HW CONCRETE,                 ! Name
  Rough,                                  ! Roughness
  0.20321,                                ! Thickness {m}
  1.311,                                  ! Conductivity {W/m-K}
  2240,                                   ! Density {kg/m3}
  836.8,                                  ! Specific Heat {J/kg-K}
  0.9,                                    ! Thermal Absorptance
  0.7,                                    ! Solar Absorptance
  0.7;                                    ! Visible Absorptance

OS:ComponentCost:LineItem,
  {b3a623e0-8df9-4eb3-8b98-9ad3f4c1427a}, ! Handle
  90.1-1999 Res B1 Ext Slab Unheated - 8in Slab with Carpet, ! Name
  ,                                       ! Type
  Construction,                           ! Line Item Type
  90.1-1999 Res B1 Ext Slab Unheated - 8in Slab with Carpet, ! Item Name
  ,                                       ! Object End Use Key
  ,                                       ! Quantity {dimensionless}
  45.52,                                  ! Material Cost {$}
  CostPerArea;                            ! Material Cost Units

