
OS:Version,
  {9e8b2345-516d-44b2-8479-a275502d7ca9}, ! Handle
  0.9.3;                                  ! Version Identifier

OS:Material,
  {9f62c503-a631-4e6a-9a3a-a5275ea429a1}, ! Handle
  Wall Insulation [2],                    ! Name
  MediumRough,                            ! Roughness
  0.0746874,                              ! Thickness {m}
  0.045,                                  ! Conductivity {W/m-K}
  265,                                    ! Density {kg/m3}
  836.8,                                  ! Specific Heat {J/kg-K}
  0.9,                                    ! Thermal Absorptance
  0.7,                                    ! Solar Absorptance
  0.7;                                    ! Visible Absorptance

OS:Material,
  {a6bccfa0-c925-4a14-8010-e17067da10e2}, ! Handle
  1/2IN Gypsum,                           ! Name
  Smooth,                                 ! Roughness
  0.01271,                                ! Thickness {m}
  0.16,                                   ! Conductivity {W/m-K}
  784.9,                                  ! Density {kg/m3}
  830,                                    ! Specific Heat {J/kg-K}
  0.9,                                    ! Thermal Absorptance
  0.92,                                   ! Solar Absorptance
  0.92;                                   ! Visible Absorptance

OS:Material,
  {f99f19c4-f0ac-4d04-8e88-5640966d06d8}, ! Handle
  Wood Siding,                            ! Name
  MediumSmooth,                           ! Roughness
  0.01,                                   ! Thickness {m}
  0.11,                                   ! Conductivity {W/m-K}
  544.62,                                 ! Density {kg/m3}
  1210,                                   ! Specific Heat {J/kg-K}
  0.9,                                    ! Thermal Absorptance
  0.78,                                   ! Solar Absorptance
  0.78;                                   ! Visible Absorptance

OS:ComponentCost:LineItem,
  {e3941701-fb6c-443f-a564-bb62c762d514}, ! Handle
  90.1-2001 Res B5 Ext Wall Wood-Framed and Other, ! Name
  ,                                       ! Type
  Construction,                           ! Line Item Type
  90.1-2001 Res B5 Ext Wall Wood-Framed and Other, ! Item Name
  ,                                       ! Object End Use Key
  ,                                       ! Quantity {dimensionless}
  73.056,                                 ! Material Cost {$}
  CostPerArea;                            ! Material Cost Units

OS:Construction,
  {cb09320f-18ea-436d-a94d-bbd2bc543dcb}, ! Handle
  90.1-2001 Res B5 Ext Wall Wood-Framed and Other, ! Name
  ,                                       ! Surface Rendering Name
  {f99f19c4-f0ac-4d04-8e88-5640966d06d8}, ! Layer 1
  {9f62c503-a631-4e6a-9a3a-a5275ea429a1}, ! Layer 2
  {a6bccfa0-c925-4a14-8010-e17067da10e2}; ! Layer 3

