
OS:Version,
  {12fc49d6-d680-4eb3-ac71-028011d8ce90}, ! Handle
  0.9.3;                                  ! Version Identifier

OS:Material,
  {1c9a4421-0412-46df-9465-b284518cb337}, ! Handle
  8IN Concrete HW,                        ! Name
  MediumRough,                            ! Roughness
  0.2033,                                 ! Thickness {m}
  1.7296,                                 ! Conductivity {W/m-K}
  2243,                                   ! Density {kg/m3}
  837,                                    ! Specific Heat {J/kg-K}
  0.9,                                    ! Thermal Absorptance
  0.65,                                   ! Solar Absorptance
  0.65;                                   ! Visible Absorptance

OS:Material,
  {62eb412a-4e60-4805-809a-5baa32d05a86}, ! Handle
  1IN Stucco,                             ! Name
  Smooth,                                 ! Roughness
  0.0253,                                 ! Thickness {m}
  0.6918,                                 ! Conductivity {W/m-K}
  1858,                                   ! Density {kg/m3}
  837,                                    ! Specific Heat {J/kg-K}
  0.9,                                    ! Thermal Absorptance
  0.92,                                   ! Solar Absorptance
  0.92;                                   ! Visible Absorptance

OS:Construction,
  {aef70d8b-7ef7-405f-9a86-b5b875ed33d8}, ! Handle
  90.1-2001 Res B5 Ext Wall Mass,         ! Name
  ,                                       ! Surface Rendering Name
  {62eb412a-4e60-4805-809a-5baa32d05a86}, ! Layer 1
  {1c9a4421-0412-46df-9465-b284518cb337}, ! Layer 2
  {c87c56a3-dbe0-4334-87b3-693f670f9f73}, ! Layer 3
  {db446b4c-2ff3-4d7b-94da-6d1a3f950682}; ! Layer 4

OS:Material,
  {c87c56a3-dbe0-4334-87b3-693f670f9f73}, ! Handle
  Wall Insulation [4],                    ! Name
  MediumRough,                            ! Roughness
  0.0338606,                              ! Thickness {m}
  0.0432,                                 ! Conductivity {W/m-K}
  91,                                     ! Density {kg/m3}
  837,                                    ! Specific Heat {J/kg-K}
  0.9,                                    ! Thermal Absorptance
  0.5,                                    ! Solar Absorptance
  0.5;                                    ! Visible Absorptance

OS:Material,
  {db446b4c-2ff3-4d7b-94da-6d1a3f950682}, ! Handle
  1/2IN Gypsum,                           ! Name
  Smooth,                                 ! Roughness
  0.01271,                                ! Thickness {m}
  0.16,                                   ! Conductivity {W/m-K}
  784.9,                                  ! Density {kg/m3}
  830,                                    ! Specific Heat {J/kg-K}
  0.9,                                    ! Thermal Absorptance
  0.92,                                   ! Solar Absorptance
  0.92;                                   ! Visible Absorptance

OS:ComponentCost:LineItem,
  {15ff3cd1-7482-4ba3-ae02-6ad4616905b1}, ! Handle
  90.1-2001 Res B5 Ext Wall Mass,         ! Name
  ,                                       ! Type
  Construction,                           ! Line Item Type
  90.1-2001 Res B5 Ext Wall Mass,         ! Item Name
  ,                                       ! Object End Use Key
  ,                                       ! Quantity {dimensionless}
  58.897,                                 ! Material Cost {$}
  CostPerArea;                            ! Material Cost Units

