
OS:Version,
  {f1288ff4-af26-4d28-96dd-b633bd462756}, ! Handle
  0.9.3;                                  ! Version Identifier

OS:Construction,
  {93096905-3d7b-4897-a1e3-60f0fa801c03}, ! Handle
  189.1-2009 Nonres 6B Roof Metal Building, ! Name
  ,                                       ! Surface Rendering Name
  {e8b8f14d-c002-4019-afae-19a1ccff95d6}, ! Layer 1
  {893d39f0-389b-4742-8d83-de988ca41afd}; ! Layer 2

OS:Material,
  {e8b8f14d-c002-4019-afae-19a1ccff95d6}, ! Handle
  Metal Roofing,                          ! Name
  MediumSmooth,                           ! Roughness
  0.001524,                               ! Thickness {m}
  45.006,                                 ! Conductivity {W/m-K}
  7680,                                   ! Density {kg/m3}
  418.4,                                  ! Specific Heat {J/kg-K}
  0.9,                                    ! Thermal Absorptance
  0.7,                                    ! Solar Absorptance
  0.3;                                    ! Visible Absorptance

OS:Material,
  {893d39f0-389b-4742-8d83-de988ca41afd}, ! Handle
  Roof Insulation [25],                   ! Name
  MediumRough,                            ! Roughness
  0.263004,                               ! Thickness {m}
  0.049,                                  ! Conductivity {W/m-K}
  265,                                    ! Density {kg/m3}
  836.8,                                  ! Specific Heat {J/kg-K}
  0.9,                                    ! Thermal Absorptance
  0.7,                                    ! Solar Absorptance
  0.7;                                    ! Visible Absorptance

OS:ComponentCost:LineItem,
  {1b729645-07f9-4765-9ad5-9171b5e5c645}, ! Handle
  189.1-2009 Nonres 6B Roof Metal Building, ! Name
  ,                                       ! Type
  Construction,                           ! Line Item Type
  189.1-2009 Nonres 6B Roof Metal Building, ! Item Name
  ,                                       ! Object End Use Key
  ,                                       ! Quantity {dimensionless}
  49.47,                                  ! Material Cost {$}
  CostPerArea;                            ! Material Cost Units

