
OS:Version,
  {d261e099-d7b3-4781-8392-05347518632a}, ! Handle
  0.9.3;                                  ! Version Identifier

OS:Construction,
  {54e6376c-7770-4059-83fb-8445d3fe899d}, ! Handle
  90.1 Windows Window Fixed 2413 Brk-Hpt-Ins-Clr, ! Name
  ,                                       ! Surface Rendering Name
  {b3cfc873-68be-4601-a2b7-96d1f6effc3d}; ! Layer 1

OS:WindowMaterial:Glazing,
  {b3cfc873-68be-4601-a2b7-96d1f6effc3d}, ! Handle
  Theoretical Glass [362],                ! Name
  SpectralAverage,                        ! Optical Data Type
  ,                                       ! Window Glass Spectral Data Set Name
  0.003,                                  ! Thickness {m}
  0.392514,                               ! Solar Transmittance at Normal Incidence
  0.557486,                               ! Front Side Solar Reflectance at Normal Incidence
  0.557486,                               ! Back Side Solar Reflectance at Normal Incidence
  0.539295,                               ! Visible Transmittance at Normal Incidence
  0.410705,                               ! Front Side Visible Reflectance at Normal Incidence
  0.410705,                               ! Back Side Visible Reflectance at Normal Incidence
  0,                                      ! Infrared Transmittance at Normal Incidence
  0.9,                                    ! Front Side Infrared Hemispherical Emissivity
  0.9,                                    ! Back Side Infrared Hemispherical Emissivity
  0.0213046;                              ! Conductivity {W/m-K}

OS:ComponentCost:LineItem,
  {b1a65c5c-4980-46bb-9de6-4f184886b32c}, ! Handle
  90.1 Windows Window Fixed 2413 Brk-Hpt-Ins-Clr, ! Name
  ,                                       ! Type
  Construction,                           ! Line Item Type
  90.1 Windows Window Fixed 2413 Brk-Hpt-Ins-Clr, ! Item Name
  ,                                       ! Object End Use Key
  ,                                       ! Quantity {dimensionless}
  0,                                      ! Material Cost {$}
  CostPerArea;                            ! Material Cost Units

