
OS:Version,
  {c881271d-75de-4f72-b0c0-caaef6bc6ba2}, !- Handle
  1.1.0;                                  !- Version Identifier

OS:Construction,
  {c0f098a9-c48d-4d09-8519-77b458a84fff}, !- Handle
  Trp LoE (e2=e5=.1) Clr 3mm/6mm Air,     !- Name
  ,                                       !- Surface Rendering Name
  {fc8fc6e6-6859-4c14-9071-1a029f3bbe0d}, !- Layer 1
  {1725b59b-1ed8-466e-bcce-8f8ff62adb69}, !- Layer 2
  {2edb6085-68b1-433d-91f0-185ca16625b9}, !- Layer 3
  {1725b59b-1ed8-466e-bcce-8f8ff62adb69}, !- Layer 4
  {c305e4a9-dc32-41de-9708-215bac0f5880}; !- Layer 5

OS:WindowMaterial:Glazing,
  {fc8fc6e6-6859-4c14-9071-1a029f3bbe0d}, !- Handle
  LoE CLEAR 3MM,                          !- Name
  SpectralAverage,                        !- Optical Data Type
  ,                                       !- Window Glass Spectral Data Set Name
  0.003,                                  !- Thickness {m}
  0.63,                                   !- Solar Transmittance at Normal Incidence
  0.19,                                   !- Front Side Solar Reflectance at Normal Incidence
  0.22,                                   !- Back Side Solar Reflectance at Normal Incidence
  0.85,                                   !- Visible Transmittance at Normal Incidence
  0.056,                                  !- Front Side Visible Reflectance at Normal Incidence
  0.079,                                  !- Back Side Visible Reflectance at Normal Incidence
  0,                                      !- Infrared Transmittance at Normal Incidence
  0.84,                                   !- Front Side Infrared Hemispherical Emissivity
  0.1,                                    !- Back Side Infrared Hemispherical Emissivity
  0.9;                                    !- Conductivity {W/m-K}

OS:WindowMaterial:Gas,
  {1725b59b-1ed8-466e-bcce-8f8ff62adb69}, !- Handle
  AIR 6MM,                                !- Name
  Air,                                    !- Gas Type
  0.0063;                                 !- Thickness {m}

OS:WindowMaterial:Glazing,
  {2edb6085-68b1-433d-91f0-185ca16625b9}, !- Handle
  CLEAR 3MM,                              !- Name
  SpectralAverage,                        !- Optical Data Type
  ,                                       !- Window Glass Spectral Data Set Name
  0.003,                                  !- Thickness {m}
  0.837,                                  !- Solar Transmittance at Normal Incidence
  0.075,                                  !- Front Side Solar Reflectance at Normal Incidence
  0.075,                                  !- Back Side Solar Reflectance at Normal Incidence
  0.898,                                  !- Visible Transmittance at Normal Incidence
  0.081,                                  !- Front Side Visible Reflectance at Normal Incidence
  0.081,                                  !- Back Side Visible Reflectance at Normal Incidence
  0,                                      !- Infrared Transmittance at Normal Incidence
  0.84,                                   !- Front Side Infrared Hemispherical Emissivity
  0.84,                                   !- Back Side Infrared Hemispherical Emissivity
  0.9;                                    !- Conductivity {W/m-K}

OS:WindowMaterial:Glazing,
  {c305e4a9-dc32-41de-9708-215bac0f5880}, !- Handle
  LoE CLEAR 3MM Rev,                      !- Name
  SpectralAverage,                        !- Optical Data Type
  ,                                       !- Window Glass Spectral Data Set Name
  0.003,                                  !- Thickness {m}
  0.63,                                   !- Solar Transmittance at Normal Incidence
  0.22,                                   !- Front Side Solar Reflectance at Normal Incidence
  0.19,                                   !- Back Side Solar Reflectance at Normal Incidence
  0.85,                                   !- Visible Transmittance at Normal Incidence
  0.079,                                  !- Front Side Visible Reflectance at Normal Incidence
  0.056,                                  !- Back Side Visible Reflectance at Normal Incidence
  0,                                      !- Infrared Transmittance at Normal Incidence
  0.1,                                    !- Front Side Infrared Hemispherical Emissivity
  0.84,                                   !- Back Side Infrared Hemispherical Emissivity
  0.9;                                    !- Conductivity {W/m-K}

