
OS:Version,
  {714a5752-2636-4f90-b1c4-c3c6409e8f80}, ! Handle
  0.9.3;                                  ! Version Identifier

OS:ComponentCost:LineItem,
  {213895e6-2fdf-4895-91f2-dbc6cc1e0364}, ! Handle
  90.1-2007 Nonres 4B Ext Wall Steel-Framed, ! Name
  ,                                       ! Type
  Construction,                           ! Line Item Type
  90.1-2007 Nonres 4B Ext Wall Steel-Framed, ! Item Name
  ,                                       ! Object End Use Key
  ,                                       ! Quantity {dimensionless}
  94.657,                                 ! Material Cost {$}
  CostPerArea;                            ! Material Cost Units

OS:Construction,
  {b25681fe-c27e-409a-bd3f-a0814b6cb319}, ! Handle
  90.1-2007 Nonres 4B Ext Wall Steel-Framed, ! Name
  ,                                       ! Surface Rendering Name
  {f436e890-bf8e-4ecb-b924-036daf45e053}, ! Layer 1
  {748f2728-e22e-4100-bec7-5eaaf58b9a5d}, ! Layer 2
  {e00317b0-9922-4a14-9e37-32c055d3a7d9}; ! Layer 3

OS:Material:NoMass,
  {f436e890-bf8e-4ecb-b924-036daf45e053}, ! Handle
  MAT-SHEATH,                             ! Name
  Rough,                                  ! Roughness
  0.36256,                                ! Thermal Resistance {m2-K/W}
  0.9,                                    ! Thermal Absorptance
  0.7,                                    ! Solar Absorptance
  0.7;                                    ! Visible Absorptance

OS:Material,
  {748f2728-e22e-4100-bec7-5eaaf58b9a5d}, ! Handle
  Wall Insulation [10],                   ! Name
  MediumRough,                            ! Roughness
  0.0971136,                              ! Thickness {m}
  0.045,                                  ! Conductivity {W/m-K}
  265,                                    ! Density {kg/m3}
  836.8,                                  ! Specific Heat {J/kg-K}
  0.9,                                    ! Thermal Absorptance
  0.7,                                    ! Solar Absorptance
  0.7;                                    ! Visible Absorptance

OS:Material,
  {e00317b0-9922-4a14-9e37-32c055d3a7d9}, ! Handle
  1/2IN Gypsum,                           ! Name
  Smooth,                                 ! Roughness
  0.01271,                                ! Thickness {m}
  0.16,                                   ! Conductivity {W/m-K}
  784.9,                                  ! Density {kg/m3}
  830,                                    ! Specific Heat {J/kg-K}
  0.9,                                    ! Thermal Absorptance
  0.92,                                   ! Solar Absorptance
  0.92;                                   ! Visible Absorptance

