
OS:Version,
  {7c59c140-c1a6-4d11-b054-3f585e5e2ffc}, ! Handle
  0.9.3;                                  ! Version Identifier

OS:Construction,
  {3ad751f3-7643-4123-8556-7783646e0963}, ! Handle
  90.1-2004 Nonres 7A Ext Slab Unheated - 8in Slab with Carpet, ! Name
  ,                                       ! Surface Rendering Name
  {471c9d9b-3718-47ac-8b6c-a8277c411f25}, ! Layer 1
  {d83061ec-854a-4af7-aee6-73b17d4c702d}; ! Layer 2

OS:Material,
  {471c9d9b-3718-47ac-8b6c-a8277c411f25}, ! Handle
  MAT-CC05 8 HW CONCRETE,                 ! Name
  Rough,                                  ! Roughness
  0.20321,                                ! Thickness {m}
  1.311,                                  ! Conductivity {W/m-K}
  2240,                                   ! Density {kg/m3}
  836.8,                                  ! Specific Heat {J/kg-K}
  0.9,                                    ! Thermal Absorptance
  0.7,                                    ! Solar Absorptance
  0.7;                                    ! Visible Absorptance

OS:Material:NoMass,
  {d83061ec-854a-4af7-aee6-73b17d4c702d}, ! Handle
  CP02 CARPET PAD,                        ! Name
  VeryRough,                              ! Roughness
  0.21648,                                ! Thermal Resistance {m2-K/W}
  0.9,                                    ! Thermal Absorptance
  0.7,                                    ! Solar Absorptance
  0.8;                                    ! Visible Absorptance

OS:ComponentCost:LineItem,
  {963ee566-9377-4f45-8b8c-73b1976038e3}, ! Handle
  90.1-2004 Nonres 7A Ext Slab Unheated - 8in Slab with Carpet, ! Name
  ,                                       ! Type
  Construction,                           ! Line Item Type
  90.1-2004 Nonres 7A Ext Slab Unheated - 8in Slab with Carpet, ! Item Name
  ,                                       ! Object End Use Key
  ,                                       ! Quantity {dimensionless}
  45.52,                                  ! Material Cost {$}
  CostPerArea;                            ! Material Cost Units

