
OS:Version,
  {ceb9f269-5d19-489d-94f6-0e7401ee4b63}, ! Handle
  0.9.3;                                  ! Version Identifier

OS:Material,
  {48520d7e-8d0f-410e-8e75-8f7ecebe16ee}, ! Handle
  MAT-CC05 4 HW CONCRETE,                 ! Name
  Rough,                                  ! Roughness
  0.1016,                                 ! Thickness {m}
  1.311,                                  ! Conductivity {W/m-K}
  2240,                                   ! Density {kg/m3}
  836.8,                                  ! Specific Heat {J/kg-K}
  0.9,                                    ! Thermal Absorptance
  0.7,                                    ! Solar Absorptance
  0.7;                                    ! Visible Absorptance

OS:Construction,
  {429ab322-5a97-400c-9701-838122c4168a}, ! Handle
  90.1-2001 Res B16 Ext Slab Unheated - 4in Slab without Carpet, ! Name
  ,                                       ! Surface Rendering Name
  {48520d7e-8d0f-410e-8e75-8f7ecebe16ee}; ! Layer 1

OS:ComponentCost:LineItem,
  {c024fdc3-e088-4797-98c6-51b437248cb2}, ! Handle
  90.1-2001 Res B16 Ext Slab Unheated - 4in Slab without Carpet, ! Name
  ,                                       ! Type
  Construction,                           ! Line Item Type
  90.1-2001 Res B16 Ext Slab Unheated - 4in Slab without Carpet, ! Item Name
  ,                                       ! Object End Use Key
  ,                                       ! Quantity {dimensionless}
  45.52,                                  ! Material Cost {$}
  CostPerArea;                            ! Material Cost Units

