
OS:Version,
  {430f53fe-cdb3-4516-bc33-4167065bbf56}, ! Handle
  0.9.3;                                  ! Version Identifier

OS:Construction,
  {968ac2f2-61d3-4da8-81fc-990f3e3e9380}, ! Handle
  90.1-2001 Res B16 Ext Slab Unheated - 4in Slab without Carpet, ! Name
  ,                                       ! Surface Rendering Name
  {d6cddaa9-8d5d-4e92-b95a-a5eb2607b92f}; ! Layer 1

OS:Material,
  {d6cddaa9-8d5d-4e92-b95a-a5eb2607b92f}, ! Handle
  MAT-CC05 4 HW CONCRETE,                 ! Name
  Rough,                                  ! Roughness
  0.1016,                                 ! Thickness {m}
  1.311,                                  ! Conductivity {W/m-K}
  2240,                                   ! Density {kg/m3}
  836.8,                                  ! Specific Heat {J/kg-K}
  0.9,                                    ! Thermal Absorptance
  0.7,                                    ! Solar Absorptance
  0.7;                                    ! Visible Absorptance

OS:ComponentCost:LineItem,
  {11d1fc9b-ff74-4155-82d2-104a98d11262}, ! Handle
  90.1-2001 Res B16 Ext Slab Unheated - 4in Slab without Carpet, ! Name
  ,                                       ! Type
  Construction,                           ! Line Item Type
  90.1-2001 Res B16 Ext Slab Unheated - 4in Slab without Carpet, ! Item Name
  ,                                       ! Object End Use Key
  ,                                       ! Quantity {dimensionless}
  45.52,                                  ! Material Cost {$}
  CostPerArea;                            ! Material Cost Units

OS:ComponentData,
  {0343f466-753c-4774-842b-950bf85f4925}, ! Handle
  Component Data 1,                       ! Name
  {bc7eb54a-99e7-4081-801c-58c21c3dab57}, ! UUID
  {8da17706-bb72-486d-9be1-d67e6e1a3b4b}, ! Version UUID
  1363981545,                             ! Creation Timestamp
  1363981545,                             ! Version Timestamp
  {968ac2f2-61d3-4da8-81fc-990f3e3e9380}, ! Name of Object 1
  {d6cddaa9-8d5d-4e92-b95a-a5eb2607b92f}, ! Name of Object 2
  {11d1fc9b-ff74-4155-82d2-104a98d11262}; ! Name of Object 3

