
OS:Version,
  {841a3754-d9dd-4974-ac48-c1af31997b60}, ! Handle
  0.9.3;                                  ! Version Identifier

OS:Material:NoMass,
  {b9dc405f-68fe-4a45-af66-d0fc38545b8c}, ! Handle
  CP02 CARPET PAD,                        ! Name
  VeryRough,                              ! Roughness
  0.21648,                                ! Thermal Resistance {m2-K/W}
  0.9,                                    ! Thermal Absorptance
  0.7,                                    ! Solar Absorptance
  0.8;                                    ! Visible Absorptance

OS:Material,
  {737a14d9-d70a-413b-b89d-f4dff84bb4e8}, ! Handle
  MAT-CC05 8 HW CONCRETE,                 ! Name
  Rough,                                  ! Roughness
  0.20321,                                ! Thickness {m}
  1.311,                                  ! Conductivity {W/m-K}
  2240,                                   ! Density {kg/m3}
  836.8,                                  ! Specific Heat {J/kg-K}
  0.9,                                    ! Thermal Absorptance
  0.7,                                    ! Solar Absorptance
  0.7;                                    ! Visible Absorptance

OS:ComponentCost:LineItem,
  {b2279e21-e126-49f1-ab7c-ac4ed23d919a}, ! Handle
  90.1-2004 Res 3A Exposed Floor Mass,    ! Name
  ,                                       ! Type
  Construction,                           ! Line Item Type
  90.1-2004 Res 3A Exposed Floor Mass,    ! Item Name
  ,                                       ! Object End Use Key
  ,                                       ! Quantity {dimensionless}
  49.612,                                 ! Material Cost {$}
  CostPerArea;                            ! Material Cost Units

OS:Material,
  {b642e972-c51e-4b58-8ba9-427849eef22a}, ! Handle
  Floor Insulation [2],                   ! Name
  MediumRough,                            ! Roughness
  0.0635689,                              ! Thickness {m}
  0.045,                                  ! Conductivity {W/m-K}
  265,                                    ! Density {kg/m3}
  836.8,                                  ! Specific Heat {J/kg-K}
  0.9,                                    ! Thermal Absorptance
  0.7,                                    ! Solar Absorptance
  0.7;                                    ! Visible Absorptance

OS:Construction,
  {135d723f-6a1d-49a0-8608-0010273c677b}, ! Handle
  90.1-2004 Res 3A Exposed Floor Mass,    ! Name
  ,                                       ! Surface Rendering Name
  {b642e972-c51e-4b58-8ba9-427849eef22a}, ! Layer 1
  {737a14d9-d70a-413b-b89d-f4dff84bb4e8}, ! Layer 2
  {b9dc405f-68fe-4a45-af66-d0fc38545b8c}; ! Layer 3

