
OS:Version,
  {ab2dbb57-1f08-4d03-9ca8-81ceae9c0c42}, ! Handle
  0.9.3;                                  ! Version Identifier

OS:Material,
  {ea099dce-ed1b-4f1d-94b1-afb396f48abc}, ! Handle
  GP01 1/2 GYPSUM 1,                      ! Name
  Smooth,                                 ! Roughness
  0.01271,                                ! Thickness {m}
  0.16,                                   ! Conductivity {W/m-K}
  800,                                    ! Density {kg/m3}
  1090,                                   ! Specific Heat {J/kg-K}
  0.9,                                    ! Thermal Absorptance
  0.7,                                    ! Solar Absorptance
  0.5;                                    ! Visible Absorptance

OS:Construction,
  {92c45453-01cb-4a96-bf4c-52ec7723ee80}, ! Handle
  90.1-2007 Res 1A Int Wall,              ! Name
  ,                                       ! Surface Rendering Name
  {f08fa4ac-850f-4d43-8c60-8be39e9ae09e}, ! Layer 1
  {f08fa4ac-850f-4d43-8c60-8be39e9ae09e}; ! Layer 2

OS:Material,
  {f08fa4ac-850f-4d43-8c60-8be39e9ae09e}, ! Handle
  GP01 1/2 GYPSUM,                        ! Name
  Smooth,                                 ! Roughness
  0.01271,                                ! Thickness {m}
  0.16,                                   ! Conductivity {W/m-K}
  800,                                    ! Density {kg/m3}
  1090,                                   ! Specific Heat {J/kg-K}
  0.9,                                    ! Thermal Absorptance
  0.7,                                    ! Solar Absorptance
  0.5;                                    ! Visible Absorptance

OS:ComponentCost:LineItem,
  {30c09696-acb3-43c3-bef1-7f2aa906d5b3}, ! Handle
  90.1-2007 Res 1A Int Wall,              ! Name
  ,                                       ! Type
  Construction,                           ! Line Item Type
  90.1-2007 Res 1A Int Wall,              ! Item Name
  ,                                       ! Object End Use Key
  ,                                       ! Quantity {dimensionless}
  0,                                      ! Material Cost {$}
  CostPerArea;                            ! Material Cost Units

