
OS:Version,
  {f7875291-4f49-40a6-8951-b8840a855c32}, ! Handle
  0.9.3;                                  ! Version Identifier

OS:Construction,
  {9924d5b6-e91b-4187-aea5-fd506a56ecb3}, ! Handle
  90.1-2007 Res 1A Int Wall,              ! Name
  ,                                       ! Surface Rendering Name
  {94765f76-83e2-4f9a-9125-4867a7762073}, ! Layer 1
  {94765f76-83e2-4f9a-9125-4867a7762073}; ! Layer 2

OS:Material,
  {94765f76-83e2-4f9a-9125-4867a7762073}, ! Handle
  GP01 1/2 GYPSUM,                        ! Name
  Smooth,                                 ! Roughness
  0.01271,                                ! Thickness {m}
  0.16,                                   ! Conductivity {W/m-K}
  800,                                    ! Density {kg/m3}
  1090,                                   ! Specific Heat {J/kg-K}
  0.9,                                    ! Thermal Absorptance
  0.7,                                    ! Solar Absorptance
  0.5;                                    ! Visible Absorptance

OS:ComponentCost:LineItem,
  {7193925f-e9ad-485e-803d-f91fd2eca94e}, ! Handle
  90.1-2007 Res 1A Int Wall,              ! Name
  ,                                       ! Type
  Construction,                           ! Line Item Type
  90.1-2007 Res 1A Int Wall,              ! Item Name
  ,                                       ! Object End Use Key
  ,                                       ! Quantity {dimensionless}
  0,                                      ! Material Cost {$}
  CostPerArea;                            ! Material Cost Units

OS:ComponentData,
  {ce676236-100c-4485-bfa8-142ffba4a674}, ! Handle
  Component Data 1,                       ! Name
  {c08a7b81-46a8-4079-a142-a155daa09a14}, ! UUID
  {50fd2316-7e68-4aa8-8763-cf4848513fe1}, ! Version UUID
  1363981830,                             ! Creation Timestamp
  1363981830,                             ! Version Timestamp
  {9924d5b6-e91b-4187-aea5-fd506a56ecb3}, ! Name of Object 1
  {94765f76-83e2-4f9a-9125-4867a7762073}, ! Name of Object 2
  {7193925f-e9ad-485e-803d-f91fd2eca94e}; ! Name of Object 3

