
OS:Version,
  {cd8d5fbe-4814-4977-81af-45f867be6cfd}, ! Handle
  0.9.3;                                  ! Version Identifier

OS:Construction,
  {e3bea56d-1839-4e3e-b2ec-fae3bb2acc7f}, ! Handle
  90.1-2001 Nonres B16 Skylight without Curb, ! Name
  ,                                       ! Surface Rendering Name
  {fb092e90-eaf1-4114-aa31-0461865d5c3c}; ! Layer 1

OS:WindowMaterial:Glazing,
  {fb092e90-eaf1-4114-aa31-0461865d5c3c}, ! Handle
  Theoretical Glass [32],                 ! Name
  SpectralAverage,                        ! Optical Data Type
  ,                                       ! Window Glass Spectral Data Set Name
  0.003,                                  ! Thickness {m}
  0.481761,                               ! Solar Transmittance at Normal Incidence
  0.468239,                               ! Front Side Solar Reflectance at Normal Incidence
  0.468239,                               ! Back Side Solar Reflectance at Normal Incidence
  0.529698,                               ! Visible Transmittance at Normal Incidence
  0.420302,                               ! Front Side Visible Reflectance at Normal Incidence
  0.420302,                               ! Back Side Visible Reflectance at Normal Incidence
  0,                                      ! Infrared Transmittance at Normal Incidence
  0.9,                                    ! Front Side Infrared Hemispherical Emissivity
  0.9,                                    ! Back Side Infrared Hemispherical Emissivity
  0.03026;                                ! Conductivity {W/m-K}

OS:ComponentCost:LineItem,
  {da1452e1-d513-4968-8c27-e97cd42ebf4d}, ! Handle
  90.1-2001 Nonres B16 Skylight without Curb, ! Name
  ,                                       ! Type
  Construction,                           ! Line Item Type
  90.1-2001 Nonres B16 Skylight without Curb, ! Item Name
  ,                                       ! Object End Use Key
  ,                                       ! Quantity {dimensionless}
  514.818,                                ! Material Cost {$}
  CostPerArea;                            ! Material Cost Units

