
OS:Version,
  {4e681314-bf32-4861-9683-5445b78d78e0}, ! Handle
  0.9.3;                                  ! Version Identifier

OS:Material,
  {f5073003-d6b8-4084-b69f-2bcd14711c6a}, ! Handle
  1/2IN Gypsum,                           ! Name
  Smooth,                                 ! Roughness
  0.01271,                                ! Thickness {m}
  0.16,                                   ! Conductivity {W/m-K}
  784.9,                                  ! Density {kg/m3}
  830,                                    ! Specific Heat {J/kg-K}
  0.9,                                    ! Thermal Absorptance
  0.92,                                   ! Solar Absorptance
  0.92;                                   ! Visible Absorptance

OS:ComponentCost:LineItem,
  {d5a62f9f-c653-4031-862f-ed0d4464ae62}, ! Handle
  90.1-2001 Nonres B20 Roof Attic and Other, ! Name
  ,                                       ! Type
  Construction,                           ! Line Item Type
  90.1-2001 Nonres B20 Roof Attic and Other, ! Item Name
  ,                                       ! Object End Use Key
  ,                                       ! Quantity {dimensionless}
  33.39,                                  ! Material Cost {$}
  CostPerArea;                            ! Material Cost Units

OS:Construction,
  {3a776038-dc23-4e06-abf6-87f5792664e0}, ! Handle
  90.1-2001 Nonres B20 Roof Attic and Other, ! Name
  ,                                       ! Surface Rendering Name
  {a79b1e59-7c67-45c0-9867-b5cf02c30bfa}, ! Layer 1
  {ea430303-936d-444b-bbf8-269bd3d94b2d}, ! Layer 2
  {a516764c-772a-41d8-956b-11555f226282}, ! Layer 3
  {f5073003-d6b8-4084-b69f-2bcd14711c6a}; ! Layer 4

OS:Material,
  {a79b1e59-7c67-45c0-9867-b5cf02c30bfa}, ! Handle
  Wood Shingles,                          ! Name
  VeryRough,                              ! Roughness
  0.0178,                                 ! Thickness {m}
  0.115,                                  ! Conductivity {W/m-K}
  513,                                    ! Density {kg/m3}
  1255,                                   ! Specific Heat {J/kg-K}
  0.9,                                    ! Thermal Absorptance
  0.78,                                   ! Solar Absorptance
  0.78;                                   ! Visible Absorptance

OS:Material,
  {ea430303-936d-444b-bbf8-269bd3d94b2d}, ! Handle
  1IN Wood Decking,                       ! Name
  MediumSmooth,                           ! Roughness
  0.0254,                                 ! Thickness {m}
  0.1211,                                 ! Conductivity {W/m-K}
  593,                                    ! Density {kg/m3}
  2510,                                   ! Specific Heat {J/kg-K}
  0.9,                                    ! Thermal Absorptance
  0.78,                                   ! Solar Absorptance
  0.78;                                   ! Visible Absorptance

OS:Material,
  {a516764c-772a-41d8-956b-11555f226282}, ! Handle
  Roof Insulation [2],                    ! Name
  MediumRough,                            ! Roughness
  0.221604,                               ! Thickness {m}
  0.049,                                  ! Conductivity {W/m-K}
  265,                                    ! Density {kg/m3}
  836.8,                                  ! Specific Heat {J/kg-K}
  0.9,                                    ! Thermal Absorptance
  0.7,                                    ! Solar Absorptance
  0.7;                                    ! Visible Absorptance

