
OS:Version,
  {94742648-1747-4457-91bd-4860912b32f8}, ! Handle
  0.9.3;                                  ! Version Identifier

OS:WindowMaterial:Glazing,
  {8f13e3a7-9d34-42d7-8924-cc717f11e509}, ! Handle
  Theoretical Glass [575],                ! Name
  SpectralAverage,                        ! Optical Data Type
  ,                                       ! Window Glass Spectral Data Set Name
  0.003,                                  ! Thickness {m}
  0.602416,                               ! Solar Transmittance at Normal Incidence
  0.347584,                               ! Front Side Solar Reflectance at Normal Incidence
  0.347584,                               ! Back Side Solar Reflectance at Normal Incidence
  0.619384,                               ! Visible Transmittance at Normal Incidence
  0.330616,                               ! Front Side Visible Reflectance at Normal Incidence
  0.330616,                               ! Back Side Visible Reflectance at Normal Incidence
  0,                                      ! Infrared Transmittance at Normal Incidence
  0.9,                                    ! Front Side Infrared Hemispherical Emissivity
  0.9,                                    ! Back Side Infrared Hemispherical Emissivity
  0.0205709;                              ! Conductivity {W/m-K}

OS:ComponentCost:LineItem,
  {fa128c69-1539-479b-806e-f740f3b3335f}, ! Handle
  90.1 Windows Window Fixed 2150 Mtl-ClrPye-Std-ClrPye, ! Name
  ,                                       ! Type
  Construction,                           ! Line Item Type
  90.1 Windows Window Fixed 2150 Mtl-ClrPye-Std-ClrPye, ! Item Name
  ,                                       ! Object End Use Key
  ,                                       ! Quantity {dimensionless}
  0,                                      ! Material Cost {$}
  CostPerArea;                            ! Material Cost Units

OS:Construction,
  {1d6bc249-812a-4845-b914-dcf0f958de4a}, ! Handle
  90.1 Windows Window Fixed 2150 Mtl-ClrPye-Std-ClrPye, ! Name
  ,                                       ! Surface Rendering Name
  {8f13e3a7-9d34-42d7-8924-cc717f11e509}; ! Layer 1

