
OS:Version,
  {f86ec5f4-0022-4379-bdb0-1c1cf27300e5}, ! Handle
  0.9.3;                                  ! Version Identifier

OS:Construction,
  {111d8c8f-3807-45fe-b2c9-9bca9df84428}, ! Handle
  90.1-2007 Nonres 6B Ext Wall Wood-Framed and Other, ! Name
  ,                                       ! Surface Rendering Name
  {bc2ffd09-f067-4a7c-8d35-d79b899a8770}, ! Layer 1
  {90d3af01-ec15-446b-883f-3b9027130f91}, ! Layer 2
  {2eb0a851-59a5-4a1a-9472-08faab28ab46}; ! Layer 3

OS:Material,
  {bc2ffd09-f067-4a7c-8d35-d79b899a8770}, ! Handle
  Wood Siding,                            ! Name
  MediumSmooth,                           ! Roughness
  0.01,                                   ! Thickness {m}
  0.11,                                   ! Conductivity {W/m-K}
  544.62,                                 ! Density {kg/m3}
  1210,                                   ! Specific Heat {J/kg-K}
  0.9,                                    ! Thermal Absorptance
  0.78,                                   ! Solar Absorptance
  0.78;                                   ! Visible Absorptance

OS:Material,
  {90d3af01-ec15-446b-883f-3b9027130f91}, ! Handle
  Wall Insulation [13],                   ! Name
  MediumRough,                            ! Roughness
  0.140713,                               ! Thickness {m}
  0.045,                                  ! Conductivity {W/m-K}
  265,                                    ! Density {kg/m3}
  836.8,                                  ! Specific Heat {J/kg-K}
  0.9,                                    ! Thermal Absorptance
  0.7,                                    ! Solar Absorptance
  0.7;                                    ! Visible Absorptance

OS:Material,
  {2eb0a851-59a5-4a1a-9472-08faab28ab46}, ! Handle
  1/2IN Gypsum,                           ! Name
  Smooth,                                 ! Roughness
  0.01271,                                ! Thickness {m}
  0.16,                                   ! Conductivity {W/m-K}
  784.9,                                  ! Density {kg/m3}
  830,                                    ! Specific Heat {J/kg-K}
  0.9,                                    ! Thermal Absorptance
  0.92,                                   ! Solar Absorptance
  0.92;                                   ! Visible Absorptance

OS:ComponentCost:LineItem,
  {316ffb80-f81a-45a1-b86c-6c3d70371f38}, ! Handle
  90.1-2007 Nonres 6B Ext Wall Wood-Framed and Other, ! Name
  ,                                       ! Type
  Construction,                           ! Line Item Type
  90.1-2007 Nonres 6B Ext Wall Wood-Framed and Other, ! Item Name
  ,                                       ! Object End Use Key
  ,                                       ! Quantity {dimensionless}
  80.638,                                 ! Material Cost {$}
  CostPerArea;                            ! Material Cost Units

