
OS:Version,
  {4057f6fa-b915-40ab-b7b0-0dea2032f30c}, ! Handle
  0.9.3;                                  ! Version Identifier

OS:Construction,
  {e6526b42-f087-43a5-9a22-f16598ad16b9}, ! Handle
  90.1-2007 Nonres 6B Ext Wall Wood-Framed and Other, ! Name
  ,                                       ! Surface Rendering Name
  {ede2dd32-6476-4b22-8681-fd3f333680d9}, ! Layer 1
  {e50f8679-afb2-406e-9a7e-525de4fa58b7}, ! Layer 2
  {309f8505-ca27-44d2-8744-a4e4c1b08392}; ! Layer 3

OS:Material,
  {ede2dd32-6476-4b22-8681-fd3f333680d9}, ! Handle
  Wood Siding,                            ! Name
  MediumSmooth,                           ! Roughness
  0.01,                                   ! Thickness {m}
  0.11,                                   ! Conductivity {W/m-K}
  544.62,                                 ! Density {kg/m3}
  1210,                                   ! Specific Heat {J/kg-K}
  0.9,                                    ! Thermal Absorptance
  0.78,                                   ! Solar Absorptance
  0.78;                                   ! Visible Absorptance

OS:Material,
  {e50f8679-afb2-406e-9a7e-525de4fa58b7}, ! Handle
  Wall Insulation [13],                   ! Name
  MediumRough,                            ! Roughness
  0.140713,                               ! Thickness {m}
  0.045,                                  ! Conductivity {W/m-K}
  265,                                    ! Density {kg/m3}
  836.8,                                  ! Specific Heat {J/kg-K}
  0.9,                                    ! Thermal Absorptance
  0.7,                                    ! Solar Absorptance
  0.7;                                    ! Visible Absorptance

OS:Material,
  {309f8505-ca27-44d2-8744-a4e4c1b08392}, ! Handle
  1/2IN Gypsum,                           ! Name
  Smooth,                                 ! Roughness
  0.01271,                                ! Thickness {m}
  0.16,                                   ! Conductivity {W/m-K}
  784.9,                                  ! Density {kg/m3}
  830,                                    ! Specific Heat {J/kg-K}
  0.9,                                    ! Thermal Absorptance
  0.92,                                   ! Solar Absorptance
  0.92;                                   ! Visible Absorptance

OS:ComponentCost:LineItem,
  {19da840c-5eae-4082-9cc4-754bb5e2eff3}, ! Handle
  90.1-2007 Nonres 6B Ext Wall Wood-Framed and Other, ! Name
  ,                                       ! Type
  Construction,                           ! Line Item Type
  90.1-2007 Nonres 6B Ext Wall Wood-Framed and Other, ! Item Name
  ,                                       ! Object End Use Key
  ,                                       ! Quantity {dimensionless}
  80.638,                                 ! Material Cost {$}
  CostPerArea;                            ! Material Cost Units

OS:ComponentData,
  {c3ab0083-658e-4613-9d92-81a3feb4e584}, ! Handle
  Component Data 1,                       ! Name
  {b78eb3d1-6af4-47e4-823a-fb1d5a3ae955}, ! UUID
  {4dd4ddfb-cd2c-4db9-9253-1a3f7c927638}, ! Version UUID
  1363981813,                             ! Creation Timestamp
  1363981813,                             ! Version Timestamp
  {e6526b42-f087-43a5-9a22-f16598ad16b9}, ! Name of Object 1
  {ede2dd32-6476-4b22-8681-fd3f333680d9}, ! Name of Object 2
  {e50f8679-afb2-406e-9a7e-525de4fa58b7}, ! Name of Object 3
  {309f8505-ca27-44d2-8744-a4e4c1b08392}, ! Name of Object 4
  {19da840c-5eae-4082-9cc4-754bb5e2eff3}; ! Name of Object 5

