
OS:Version,
  {6fde265a-5cc7-4fbe-9d15-5ee424d69b60}, ! Handle
  0.9.3;                                  ! Version Identifier

OS:Construction,
  {559b29c2-3c81-444b-a0a3-5773af06b830}, ! Handle
  90.1-2004 Res 3A Ext Wall Wood-Framed and Other, ! Name
  ,                                       ! Surface Rendering Name
  {c2ad9133-0329-4f5a-8342-b679a7840a78}, ! Layer 1
  {ff475f4a-fb68-4521-863d-6e15acd03236}, ! Layer 2
  {5e6fb53e-f8f4-417d-946d-7ec15a26e5cc}; ! Layer 3

OS:Material,
  {c2ad9133-0329-4f5a-8342-b679a7840a78}, ! Handle
  Wood Siding,                            ! Name
  MediumSmooth,                           ! Roughness
  0.01,                                   ! Thickness {m}
  0.11,                                   ! Conductivity {W/m-K}
  544.62,                                 ! Density {kg/m3}
  1210,                                   ! Specific Heat {J/kg-K}
  0.9,                                    ! Thermal Absorptance
  0.78,                                   ! Solar Absorptance
  0.78;                                   ! Visible Absorptance

OS:Material,
  {ff475f4a-fb68-4521-863d-6e15acd03236}, ! Handle
  Wall Insulation [2],                    ! Name
  MediumRough,                            ! Roughness
  0.0746874,                              ! Thickness {m}
  0.045,                                  ! Conductivity {W/m-K}
  265,                                    ! Density {kg/m3}
  836.8,                                  ! Specific Heat {J/kg-K}
  0.9,                                    ! Thermal Absorptance
  0.7,                                    ! Solar Absorptance
  0.7;                                    ! Visible Absorptance

OS:Material,
  {5e6fb53e-f8f4-417d-946d-7ec15a26e5cc}, ! Handle
  1/2IN Gypsum,                           ! Name
  Smooth,                                 ! Roughness
  0.01271,                                ! Thickness {m}
  0.16,                                   ! Conductivity {W/m-K}
  784.9,                                  ! Density {kg/m3}
  830,                                    ! Specific Heat {J/kg-K}
  0.9,                                    ! Thermal Absorptance
  0.92,                                   ! Solar Absorptance
  0.92;                                   ! Visible Absorptance

OS:ComponentCost:LineItem,
  {dadaa8da-6c11-4c8f-92d4-c99be2effd5e}, ! Handle
  90.1-2004 Res 3A Ext Wall Wood-Framed and Other, ! Name
  ,                                       ! Type
  Construction,                           ! Line Item Type
  90.1-2004 Res 3A Ext Wall Wood-Framed and Other, ! Item Name
  ,                                       ! Object End Use Key
  ,                                       ! Quantity {dimensionless}
  73.056,                                 ! Material Cost {$}
  CostPerArea;                            ! Material Cost Units

