
OS:Version,
  {feed6423-585a-4134-a103-edb81ffa3a35}, ! Handle
  0.9.3;                                  ! Version Identifier

OS:ComponentCost:LineItem,
  {161b1166-8ba6-4565-911d-b295b7211b7d}, ! Handle
  90.1-1999 Nonres B5 Ext Wall Steel-Framed, ! Name
  ,                                       ! Type
  Construction,                           ! Line Item Type
  90.1-1999 Nonres B5 Ext Wall Steel-Framed, ! Item Name
  ,                                       ! Object End Use Key
  ,                                       ! Quantity {dimensionless}
  87.08,                                  ! Material Cost {$}
  CostPerArea;                            ! Material Cost Units

OS:Material,
  {ccc67ca8-fab0-4abe-a909-5f4d33971663}, ! Handle
  Wall Insulation [1],                    ! Name
  MediumRough,                            ! Roughness
  0.0373223,                              ! Thickness {m}
  0.045,                                  ! Conductivity {W/m-K}
  265,                                    ! Density {kg/m3}
  836.8,                                  ! Specific Heat {J/kg-K}
  0.9,                                    ! Thermal Absorptance
  0.7,                                    ! Solar Absorptance
  0.7;                                    ! Visible Absorptance

OS:Construction,
  {c4a12de1-4c62-4d52-886d-43ba83c35e48}, ! Handle
  90.1-1999 Nonres B5 Ext Wall Steel-Framed, ! Name
  ,                                       ! Surface Rendering Name
  {2437148c-af23-489b-8f6a-2218d6207447}, ! Layer 1
  {ccc67ca8-fab0-4abe-a909-5f4d33971663}, ! Layer 2
  {e04ba123-876f-4c6f-b889-c7ac431e9d00}; ! Layer 3

OS:Material:NoMass,
  {2437148c-af23-489b-8f6a-2218d6207447}, ! Handle
  MAT-SHEATH,                             ! Name
  Rough,                                  ! Roughness
  0.36256,                                ! Thermal Resistance {m2-K/W}
  0.9,                                    ! Thermal Absorptance
  0.7,                                    ! Solar Absorptance
  0.7;                                    ! Visible Absorptance

OS:Material,
  {e04ba123-876f-4c6f-b889-c7ac431e9d00}, ! Handle
  1/2IN Gypsum,                           ! Name
  Smooth,                                 ! Roughness
  0.01271,                                ! Thickness {m}
  0.16,                                   ! Conductivity {W/m-K}
  784.9,                                  ! Density {kg/m3}
  830,                                    ! Specific Heat {J/kg-K}
  0.9,                                    ! Thermal Absorptance
  0.92,                                   ! Solar Absorptance
  0.92;                                   ! Visible Absorptance

