
OS:Version,
  {c3dba05a-ea74-48b7-a1f1-261fed241384}, ! Handle
  0.9.3;                                  ! Version Identifier

OS:Construction,
  {eaf8a0e0-8399-4e1c-ae47-bab253115c38}, ! Handle
  AEDG K12 Nonres 7A Int Wall,            ! Name
  ,                                       ! Surface Rendering Name
  {f63e01f4-bbb6-436d-afe9-55cd633280f0}, ! Layer 1
  {f63e01f4-bbb6-436d-afe9-55cd633280f0}; ! Layer 2

OS:Material,
  {f63e01f4-bbb6-436d-afe9-55cd633280f0}, ! Handle
  GP01 1/2 GYPSUM,                        ! Name
  Smooth,                                 ! Roughness
  0.01271,                                ! Thickness {m}
  0.16,                                   ! Conductivity {W/m-K}
  800,                                    ! Density {kg/m3}
  1090,                                   ! Specific Heat {J/kg-K}
  0.9,                                    ! Thermal Absorptance
  0.7,                                    ! Solar Absorptance
  0.5;                                    ! Visible Absorptance

OS:ComponentCost:LineItem,
  {a7dbcf28-62b9-4890-ac75-f2370b634b37}, ! Handle
  AEDG K12 Nonres 7A Int Wall,            ! Name
  ,                                       ! Type
  Construction,                           ! Line Item Type
  AEDG K12 Nonres 7A Int Wall,            ! Item Name
  ,                                       ! Object End Use Key
  ,                                       ! Quantity {dimensionless}
  0,                                      ! Material Cost {$}
  CostPerArea;                            ! Material Cost Units

OS:ComponentData,
  {89241803-9c78-4986-ba7f-d9087c119de1}, ! Handle
  Component Data 1,                       ! Name
  {16c1fa47-0273-4395-8f70-06c6a9f8a315}, ! UUID
  {7e2de449-28e8-4f8a-b162-98b32da13a3a}, ! Version UUID
  1363981901,                             ! Creation Timestamp
  1363981901,                             ! Version Timestamp
  {eaf8a0e0-8399-4e1c-ae47-bab253115c38}, ! Name of Object 1
  {f63e01f4-bbb6-436d-afe9-55cd633280f0}, ! Name of Object 2
  {a7dbcf28-62b9-4890-ac75-f2370b634b37}; ! Name of Object 3

