
OS:Version,
  {8d6742bd-b0d5-4581-9470-a5b3e7482781}, ! Handle
  0.9.3;                                  ! Version Identifier

OS:Construction,
  {a266b063-2d80-4e5d-b7d8-c05d33010e74}, ! Handle
  189.1-2009 Nonres 5B Door Swinging,     ! Name
  ,                                       ! Surface Rendering Name
  {4fccaf78-905d-46e8-b7b5-dfafc99b8277}, ! Layer 1
  {0995cd4f-d102-441f-88e4-84d12b75fff3}, ! Layer 2
  {5ada30c6-9fbb-45a0-876c-41e44e0125e5}; ! Layer 3

OS:Material,
  {4fccaf78-905d-46e8-b7b5-dfafc99b8277}, ! Handle
  METAL Door Medium 18Ga_1,               ! Name
  Smooth,                                 ! Roughness
  0.0013106,                              ! Thickness {m}
  45.3149,                                ! Conductivity {W/m-K}
  7833.03,                                ! Density {kg/m3}
  502.08,                                 ! Specific Heat {J/kg-K}
  0.8,                                    ! Thermal Absorptance
  0.5,                                    ! Solar Absorptance
  0.5;                                    ! Visible Absorptance

OS:Material:NoMass,
  {0995cd4f-d102-441f-88e4-84d12b75fff3}, ! Handle
  AIR [5],                                ! Name
  Smooth,                                 ! Roughness
  0.440339,                               ! Thermal Resistance {m2-K/W}
  0.8,                                    ! Thermal Absorptance
  0.5,                                    ! Solar Absorptance
  0.5;                                    ! Visible Absorptance

OS:Material,
  {5ada30c6-9fbb-45a0-876c-41e44e0125e5}, ! Handle
  METAL Door Medium 18Ga_2,               ! Name
  Smooth,                                 ! Roughness
  0.0013106,                              ! Thickness {m}
  45.3149,                                ! Conductivity {W/m-K}
  7833.03,                                ! Density {kg/m3}
  502.08,                                 ! Specific Heat {J/kg-K}
  0.8,                                    ! Thermal Absorptance
  0.5,                                    ! Solar Absorptance
  0.5;                                    ! Visible Absorptance

OS:ComponentCost:LineItem,
  {b25a1aef-a79f-4dfe-b3e1-2f3e1375831a}, ! Handle
  189.1-2009 Nonres 5B Door Swinging,     ! Name
  ,                                       ! Type
  Construction,                           ! Line Item Type
  189.1-2009 Nonres 5B Door Swinging,     ! Item Name
  ,                                       ! Object End Use Key
  ,                                       ! Quantity {dimensionless}
  0,                                      ! Material Cost {$}
  CostPerArea;                            ! Material Cost Units

