
OS:Version,
  {2e3612db-7417-4ba3-98d5-1c54f051be7a}, ! Handle
  0.9.3;                                  ! Version Identifier

OS:ComponentCost:LineItem,
  {c2f16091-17f3-4819-9d57-dc5da424467c}, ! Handle
  90.1-1999 Res B26 Roof IEAD,            ! Name
  ,                                       ! Type
  Construction,                           ! Line Item Type
  90.1-1999 Res B26 Roof IEAD,            ! Item Name
  ,                                       ! Object End Use Key
  ,                                       ! Quantity {dimensionless}
  56.539,                                 ! Material Cost {$}
  CostPerArea;                            ! Material Cost Units

OS:Material,
  {55edf48c-8494-4db6-96f7-19cc6ec61e47}, ! Handle
  Roof Insulation [9],                    ! Name
  MediumRough,                            ! Roughness
  0.209009,                               ! Thickness {m}
  0.049,                                  ! Conductivity {W/m-K}
  265,                                    ! Density {kg/m3}
  836.8,                                  ! Specific Heat {J/kg-K}
  0.9,                                    ! Thermal Absorptance
  0.7,                                    ! Solar Absorptance
  0.7;                                    ! Visible Absorptance

OS:Construction,
  {cb9d12df-698e-4929-956e-5323046d49e8}, ! Handle
  90.1-1999 Res B26 Roof IEAD,            ! Name
  ,                                       ! Surface Rendering Name
  {ed870eb2-fa03-4e0d-8d4f-f6acb296e64b}, ! Layer 1
  {55edf48c-8494-4db6-96f7-19cc6ec61e47}, ! Layer 2
  {ce057b5d-7eb3-4605-bfed-2a393cfb3815}; ! Layer 3

OS:Material,
  {ed870eb2-fa03-4e0d-8d4f-f6acb296e64b}, ! Handle
  Roof Membrane,                          ! Name
  VeryRough,                              ! Roughness
  0.0095,                                 ! Thickness {m}
  0.16,                                   ! Conductivity {W/m-K}
  1121.29,                                ! Density {kg/m3}
  1460,                                   ! Specific Heat {J/kg-K}
  0.9,                                    ! Thermal Absorptance
  0.7,                                    ! Solar Absorptance
  0.7;                                    ! Visible Absorptance

OS:Material,
  {ce057b5d-7eb3-4605-bfed-2a393cfb3815}, ! Handle
  Metal Decking,                          ! Name
  MediumSmooth,                           ! Roughness
  0.001524,                               ! Thickness {m}
  45.006,                                 ! Conductivity {W/m-K}
  7680,                                   ! Density {kg/m3}
  418.4,                                  ! Specific Heat {J/kg-K}
  0.9,                                    ! Thermal Absorptance
  0.7,                                    ! Solar Absorptance
  0.3;                                    ! Visible Absorptance

