
OS:Version,
  {fbbea37d-6a3f-4355-a8c9-cd6c0242e27d}, ! Handle
  0.9.3;                                  ! Version Identifier

OS:Construction,
  {f66d8393-2d0e-4105-8f90-4f2764b38132}, ! Handle
  90.1-1999 Res B26 Roof IEAD,            ! Name
  ,                                       ! Surface Rendering Name
  {c034647b-92fe-4c57-9e63-c9458b41d2bb}, ! Layer 1
  {7e0d2481-e9f6-4735-aadf-18d7b68ab1af}, ! Layer 2
  {f8842982-0eda-4542-ab98-535c499ba2c3}; ! Layer 3

OS:Material,
  {c034647b-92fe-4c57-9e63-c9458b41d2bb}, ! Handle
  Roof Membrane,                          ! Name
  VeryRough,                              ! Roughness
  0.0095,                                 ! Thickness {m}
  0.16,                                   ! Conductivity {W/m-K}
  1121.29,                                ! Density {kg/m3}
  1460,                                   ! Specific Heat {J/kg-K}
  0.9,                                    ! Thermal Absorptance
  0.7,                                    ! Solar Absorptance
  0.7;                                    ! Visible Absorptance

OS:Material,
  {7e0d2481-e9f6-4735-aadf-18d7b68ab1af}, ! Handle
  Roof Insulation [9],                    ! Name
  MediumRough,                            ! Roughness
  0.209009,                               ! Thickness {m}
  0.049,                                  ! Conductivity {W/m-K}
  265,                                    ! Density {kg/m3}
  836.8,                                  ! Specific Heat {J/kg-K}
  0.9,                                    ! Thermal Absorptance
  0.7,                                    ! Solar Absorptance
  0.7;                                    ! Visible Absorptance

OS:Material,
  {f8842982-0eda-4542-ab98-535c499ba2c3}, ! Handle
  Metal Decking,                          ! Name
  MediumSmooth,                           ! Roughness
  0.001524,                               ! Thickness {m}
  45.006,                                 ! Conductivity {W/m-K}
  7680,                                   ! Density {kg/m3}
  418.4,                                  ! Specific Heat {J/kg-K}
  0.9,                                    ! Thermal Absorptance
  0.7,                                    ! Solar Absorptance
  0.3;                                    ! Visible Absorptance

OS:ComponentCost:LineItem,
  {043051e6-15ec-4e73-8c68-3f60be71c0fd}, ! Handle
  90.1-1999 Res B26 Roof IEAD,            ! Name
  ,                                       ! Type
  Construction,                           ! Line Item Type
  90.1-1999 Res B26 Roof IEAD,            ! Item Name
  ,                                       ! Object End Use Key
  ,                                       ! Quantity {dimensionless}
  56.539,                                 ! Material Cost {$}
  CostPerArea;                            ! Material Cost Units

OS:ComponentData,
  {04a1383e-4ccf-4eda-9d7a-5b6af7246a7c}, ! Handle
  Component Data 1,                       ! Name
  {e9f7ec2e-dac8-4575-8f23-937a96ead9b1}, ! UUID
  {b90b567f-2342-48f4-9892-0ef0e12b847f}, ! Version UUID
  1363981279,                             ! Creation Timestamp
  1363981279,                             ! Version Timestamp
  {f66d8393-2d0e-4105-8f90-4f2764b38132}, ! Name of Object 1
  {c034647b-92fe-4c57-9e63-c9458b41d2bb}, ! Name of Object 2
  {7e0d2481-e9f6-4735-aadf-18d7b68ab1af}, ! Name of Object 3
  {f8842982-0eda-4542-ab98-535c499ba2c3}, ! Name of Object 4
  {043051e6-15ec-4e73-8c68-3f60be71c0fd}; ! Name of Object 5

