
OS:Version,
  {c39d5da7-5253-4d9c-991f-49c8b93b4020}, ! Handle
  0.9.3;                                  ! Version Identifier

OS:ComponentCost:LineItem,
  {c210798c-8e3f-47e6-aa99-cf580ccdaec9}, ! Handle
  90.1-2001 Nonres B2 Ext Wall Steel-Framed, ! Name
  ,                                       ! Type
  Construction,                           ! Line Item Type
  90.1-2001 Nonres B2 Ext Wall Steel-Framed, ! Item Name
  ,                                       ! Object End Use Key
  ,                                       ! Quantity {dimensionless}
  87.08,                                  ! Material Cost {$}
  CostPerArea;                            ! Material Cost Units

OS:Construction,
  {4f9d988c-6eda-4b82-b094-9510cf751942}, ! Handle
  90.1-2001 Nonres B2 Ext Wall Steel-Framed, ! Name
  ,                                       ! Surface Rendering Name
  {575a90c3-3e21-4298-8556-39ac29eab3d5}, ! Layer 1
  {a8ffc89a-39ff-4440-8932-193529a8883d}, ! Layer 2
  {93f32029-3f56-4bc6-a83b-193d0a0e8cd4}; ! Layer 3

OS:Material:NoMass,
  {575a90c3-3e21-4298-8556-39ac29eab3d5}, ! Handle
  MAT-SHEATH,                             ! Name
  Rough,                                  ! Roughness
  0.36256,                                ! Thermal Resistance {m2-K/W}
  0.9,                                    ! Thermal Absorptance
  0.7,                                    ! Solar Absorptance
  0.7;                                    ! Visible Absorptance

OS:Material,
  {a8ffc89a-39ff-4440-8932-193529a8883d}, ! Handle
  Wall Insulation [1],                    ! Name
  MediumRough,                            ! Roughness
  0.0373223,                              ! Thickness {m}
  0.045,                                  ! Conductivity {W/m-K}
  265,                                    ! Density {kg/m3}
  836.8,                                  ! Specific Heat {J/kg-K}
  0.9,                                    ! Thermal Absorptance
  0.7,                                    ! Solar Absorptance
  0.7;                                    ! Visible Absorptance

OS:Material,
  {93f32029-3f56-4bc6-a83b-193d0a0e8cd4}, ! Handle
  1/2IN Gypsum,                           ! Name
  Smooth,                                 ! Roughness
  0.01271,                                ! Thickness {m}
  0.16,                                   ! Conductivity {W/m-K}
  784.9,                                  ! Density {kg/m3}
  830,                                    ! Specific Heat {J/kg-K}
  0.9,                                    ! Thermal Absorptance
  0.92,                                   ! Solar Absorptance
  0.92;                                   ! Visible Absorptance

