
OS:Version,
  {a6db65dc-6b85-4c0a-b3e0-5a5dd4512978}, ! Handle
  0.9.3;                                  ! Version Identifier

OS:Construction,
  {1a8f2362-eccf-4e2e-b87f-d6ff99a7c9c2}, ! Handle
  90.1-2001 Nonres B23 Ext Slab Unheated - 4in Slab without Carpet, ! Name
  ,                                       ! Surface Rendering Name
  {0d7be3d6-791a-49a7-98b4-ae40a98a721b}; ! Layer 1

OS:Material,
  {0d7be3d6-791a-49a7-98b4-ae40a98a721b}, ! Handle
  MAT-CC05 4 HW CONCRETE,                 ! Name
  Rough,                                  ! Roughness
  0.1016,                                 ! Thickness {m}
  1.311,                                  ! Conductivity {W/m-K}
  2240,                                   ! Density {kg/m3}
  836.8,                                  ! Specific Heat {J/kg-K}
  0.9,                                    ! Thermal Absorptance
  0.7,                                    ! Solar Absorptance
  0.7;                                    ! Visible Absorptance

OS:ComponentCost:LineItem,
  {8119921b-b772-498a-b4f7-0656a78a47f7}, ! Handle
  90.1-2001 Nonres B23 Ext Slab Unheated - 4in Slab without Carpet, ! Name
  ,                                       ! Type
  Construction,                           ! Line Item Type
  90.1-2001 Nonres B23 Ext Slab Unheated - 4in Slab without Carpet, ! Item Name
  ,                                       ! Object End Use Key
  ,                                       ! Quantity {dimensionless}
  45.52,                                  ! Material Cost {$}
  CostPerArea;                            ! Material Cost Units

OS:ComponentData,
  {65d4d1db-4426-4e3f-b28a-6f18ad33613c}, ! Handle
  Component Data 1,                       ! Name
  {494f339d-3e61-45c2-a77a-41fb8b5aedf3}, ! UUID
  {962124a3-c4f1-499c-9ff8-d8a1d57ed6d3}, ! Version UUID
  1363981420,                             ! Creation Timestamp
  1363981420,                             ! Version Timestamp
  {1a8f2362-eccf-4e2e-b87f-d6ff99a7c9c2}, ! Name of Object 1
  {0d7be3d6-791a-49a7-98b4-ae40a98a721b}, ! Name of Object 2
  {8119921b-b772-498a-b4f7-0656a78a47f7}; ! Name of Object 3

