
OS:Version,
  {f929e334-fb9e-469b-892a-6a29a0eacfe1}, ! Handle
  0.9.3;                                  ! Version Identifier

OS:Material,
  {adba069c-e009-4d41-af15-57124a2ca4b2}, ! Handle
  Metal Roofing,                          ! Name
  MediumSmooth,                           ! Roughness
  0.001524,                               ! Thickness {m}
  45.006,                                 ! Conductivity {W/m-K}
  7680,                                   ! Density {kg/m3}
  418.4,                                  ! Specific Heat {J/kg-K}
  0.9,                                    ! Thermal Absorptance
  0.7,                                    ! Solar Absorptance
  0.3;                                    ! Visible Absorptance

OS:Material,
  {25ace216-8fae-4429-9a3f-18071c28f902}, ! Handle
  Roof Insulation [1],                    ! Name
  MediumRough,                            ! Roughness
  0.123533,                               ! Thickness {m}
  0.049,                                  ! Conductivity {W/m-K}
  265,                                    ! Density {kg/m3}
  836.8,                                  ! Specific Heat {J/kg-K}
  0.9,                                    ! Thermal Absorptance
  0.7,                                    ! Solar Absorptance
  0.7;                                    ! Visible Absorptance

OS:Construction,
  {baabb609-f9f9-487e-8283-8c5854ef543b}, ! Handle
  90.1-2004 Res 5B Roof Metal Building,   ! Name
  ,                                       ! Surface Rendering Name
  {adba069c-e009-4d41-af15-57124a2ca4b2}, ! Layer 1
  {25ace216-8fae-4429-9a3f-18071c28f902}; ! Layer 2

OS:ComponentCost:LineItem,
  {f7615830-6d92-4b52-be9f-cb14feecc853}, ! Handle
  90.1-2004 Res 5B Roof Metal Building,   ! Name
  ,                                       ! Type
  Construction,                           ! Line Item Type
  90.1-2004 Res 5B Roof Metal Building,   ! Item Name
  ,                                       ! Object End Use Key
  ,                                       ! Quantity {dimensionless}
  38.206,                                 ! Material Cost {$}
  CostPerArea;                            ! Material Cost Units

