
OS:Version,
  {815d2955-ab9a-45aa-8d16-0fceb5bf9954}, !- Handle
  1.0.6;                                  !- Version Identifier

OS:WindowMaterial:Glazing,
  {de3861bc-9e1e-4f7a-9fdb-f358eb7e3a76}, !- Handle
  189.1-2011 NONRES 1A METAL FRAMING CURTAINWALL-STOREFRONT THEORETICAL GLAZING, !- Name
  SpectralAverage,                        !- Optical Data Type
  ,                                       !- Window Glass Spectral Data Set Name
  0.002,                                  !- Thickness {m}
  0.10958,                                !- Solar Transmittance at Normal Incidence
  0.41418,                                !- Front Side Solar Reflectance at Normal Incidence
  0.41418,                                !- Back Side Solar Reflectance at Normal Incidence
  0.10958,                                !- Visible Transmittance at Normal Incidence
  0.41418,                                !- Front Side Visible Reflectance at Normal Incidence
  0.41418,                                !- Back Side Visible Reflectance at Normal Incidence
  0,                                      !- Infrared Transmittance at Normal Incidence
  0.84,                                   !- Front Side Infrared Hemispherical Emissivity
  0.84,                                   !- Back Side Infrared Hemispherical Emissivity
  0.39122,                                !- Conductivity {W/m-K}
  1,                                      !- Dirt Correction Factor for Solar and Visible Transmittance
  No;                                     !- Solar Diffusing

OS:Construction,
  {0028dbec-9844-4e09-9f1d-383783995c1e}, !- Handle
  189.1-2011 NONRES 1A METAL FRAMING CURTAINWALL-STOREFRONT, !- Name
  ,                                       !- Surface Rendering Name
  {de3861bc-9e1e-4f7a-9fdb-f358eb7e3a76}; !- Layer 1

