
OS:Version,
  {23d140b2-2149-401b-bf7d-2e06fc0e2480}, ! Handle
  0.9.3;                                  ! Version Identifier

OS:ComponentCost:LineItem,
  {b1c1336d-1250-43e5-9984-1546141045cf}, ! Handle
  Title 24-2008 Nonres 13 Roof Metal Building, ! Name
  ,                                       ! Type
  Construction,                           ! Line Item Type
  Title 24-2008 Nonres 13 Roof Metal Building, ! Item Name
  ,                                       ! Object End Use Key
  ,                                       ! Quantity {dimensionless}
  38.21,                                  ! Material Cost {$}
  CostPerArea;                            ! Material Cost Units

OS:Material,
  {bdf25a46-a7c0-404c-8cf2-b310000c5670}, ! Handle
  Metal Roofing [1],                      ! Name
  MediumSmooth,                           ! Roughness
  0.001524,                               ! Thickness {m}
  45.006,                                 ! Conductivity {W/m-K}
  7680,                                   ! Density {kg/m3}
  418.4,                                  ! Specific Heat {J/kg-K}
  0.9,                                    ! Thermal Absorptance
  0.7,                                    ! Solar Absorptance
  0.85;                                   ! Visible Absorptance

OS:Material,
  {384d40e9-85ff-4d13-9253-966c59b4e588}, ! Handle
  Roof Insulation [15],                   ! Name
  MediumRough,                            ! Roughness
  0.123565,                               ! Thickness {m}
  0.049,                                  ! Conductivity {W/m-K}
  265,                                    ! Density {kg/m3}
  836.8,                                  ! Specific Heat {J/kg-K}
  0.9,                                    ! Thermal Absorptance
  0.7,                                    ! Solar Absorptance
  0.7;                                    ! Visible Absorptance

OS:Construction,
  {79e69abc-5e97-4ca2-833c-f9013c7ebb70}, ! Handle
  Title 24-2008 Nonres 13 Roof Metal Building, ! Name
  ,                                       ! Surface Rendering Name
  {bdf25a46-a7c0-404c-8cf2-b310000c5670}, ! Layer 1
  {384d40e9-85ff-4d13-9253-966c59b4e588}; ! Layer 2

