
OS:Version,
  {500588d7-555d-474f-8788-ce349139c684}, !- Handle
  1.1.0;                                  !- Version Identifier

OS:Construction,
  {e7ee139d-4ed6-4139-9f06-9585172df97c}, !- Handle
  Dbl LoE (e3=.1) Clr 3mm/13mm Arg,       !- Name
  ,                                       !- Surface Rendering Name
  {2c88ed1d-6c06-4a51-a32e-cde3fc82ff94}, !- Layer 1
  {ed2c9c0f-c195-4098-9554-8a93a1a2a988}, !- Layer 2
  {3efd854b-939c-4ebb-886d-bad6b4b391a9}; !- Layer 3

OS:WindowMaterial:Glazing,
  {2c88ed1d-6c06-4a51-a32e-cde3fc82ff94}, !- Handle
  CLEAR 3MM,                              !- Name
  SpectralAverage,                        !- Optical Data Type
  ,                                       !- Window Glass Spectral Data Set Name
  0.003,                                  !- Thickness {m}
  0.837,                                  !- Solar Transmittance at Normal Incidence
  0.075,                                  !- Front Side Solar Reflectance at Normal Incidence
  0.075,                                  !- Back Side Solar Reflectance at Normal Incidence
  0.898,                                  !- Visible Transmittance at Normal Incidence
  0.081,                                  !- Front Side Visible Reflectance at Normal Incidence
  0.081,                                  !- Back Side Visible Reflectance at Normal Incidence
  0,                                      !- Infrared Transmittance at Normal Incidence
  0.84,                                   !- Front Side Infrared Hemispherical Emissivity
  0.84,                                   !- Back Side Infrared Hemispherical Emissivity
  0.9;                                    !- Conductivity {W/m-K}

OS:WindowMaterial:Gas,
  {ed2c9c0f-c195-4098-9554-8a93a1a2a988}, !- Handle
  ARGON 13MM,                             !- Name
  Argon,                                  !- Gas Type
  0.0127;                                 !- Thickness {m}

OS:WindowMaterial:Glazing,
  {3efd854b-939c-4ebb-886d-bad6b4b391a9}, !- Handle
  LoE CLEAR 3MM Rev,                      !- Name
  SpectralAverage,                        !- Optical Data Type
  ,                                       !- Window Glass Spectral Data Set Name
  0.003,                                  !- Thickness {m}
  0.63,                                   !- Solar Transmittance at Normal Incidence
  0.22,                                   !- Front Side Solar Reflectance at Normal Incidence
  0.19,                                   !- Back Side Solar Reflectance at Normal Incidence
  0.85,                                   !- Visible Transmittance at Normal Incidence
  0.079,                                  !- Front Side Visible Reflectance at Normal Incidence
  0.056,                                  !- Back Side Visible Reflectance at Normal Incidence
  0,                                      !- Infrared Transmittance at Normal Incidence
  0.1,                                    !- Front Side Infrared Hemispherical Emissivity
  0.84,                                   !- Back Side Infrared Hemispherical Emissivity
  0.9;                                    !- Conductivity {W/m-K}

