
! 
OS:Version,
  {8503bb35-3288-4176-9c41-752f3d976c4b}, !- Handle
  1.13.0;                                 !- Version Identifier


! 
OS:Material,
  {07c83aac-5c94-46f2-883d-fa12800f5586}, !- Handle
  Aislamiento: SATE
WEBER: weber.therm placa EPS 160 (0.160 m)
R: 4.3 m2K/W,                             !- Name
  MediumRough,                                 !- Roughness
  0.16,                                    !- Thickness {m}
  0.037,                                    !- Conductivity {W/m-K}
  15.0,                                    !- Density {kg/m3}
  800.0,                                    !- Specific Heat {J/kg-K}
  0.9,                                    !- Thermal Absorptance
  0.6,                                    !- Solar Absorptance
  0.6;                                    !- Visible Absorptance

