
OS:Version,
  {b5bc1130-0817-4bb8-af56-ce061442626b}, ! Handle
  0.9.3;                                  ! Version Identifier

OS:Material,
  {7e894ff6-76a6-4710-8036-be1c60dd4767}, ! Handle
  Roof Insulation [106],                  ! Name
  MediumRough,                            ! Roughness
  0.190659,                               ! Thickness {m}
  0.049,                                  ! Conductivity {W/m-K}
  265,                                    ! Density {kg/m3}
  836.8,                                  ! Specific Heat {J/kg-K}
  0.9,                                    ! Thermal Absorptance
  0.7,                                    ! Solar Absorptance
  0.7;                                    ! Visible Absorptance

OS:Material,
  {2f2cbd76-f1d1-4c52-8b93-eca104495052}, ! Handle
  1/2IN Gypsum,                           ! Name
  Smooth,                                 ! Roughness
  0.01271,                                ! Thickness {m}
  0.16,                                   ! Conductivity {W/m-K}
  784.9,                                  ! Density {kg/m3}
  830,                                    ! Specific Heat {J/kg-K}
  0.9,                                    ! Thermal Absorptance
  0.92,                                   ! Solar Absorptance
  0.92;                                   ! Visible Absorptance

OS:Material,
  {29a27db9-cf83-4e50-8e2e-9aff70c2b6ce}, ! Handle
  Wood Shingles [1],                      ! Name
  VeryRough,                              ! Roughness
  0.0178,                                 ! Thickness {m}
  0.115,                                  ! Conductivity {W/m-K}
  513,                                    ! Density {kg/m3}
  1255,                                   ! Specific Heat {J/kg-K}
  0.9,                                    ! Thermal Absorptance
  0.78,                                   ! Solar Absorptance
  0.85;                                   ! Visible Absorptance

OS:Material,
  {aa82206a-aafe-4d3c-9c7a-7de30f202ff9}, ! Handle
  1IN Wood Decking,                       ! Name
  MediumSmooth,                           ! Roughness
  0.0254,                                 ! Thickness {m}
  0.1211,                                 ! Conductivity {W/m-K}
  593,                                    ! Density {kg/m3}
  2510,                                   ! Specific Heat {J/kg-K}
  0.9,                                    ! Thermal Absorptance
  0.78,                                   ! Solar Absorptance
  0.78;                                   ! Visible Absorptance

OS:Construction,
  {a170e4f0-a6e2-415d-8903-95a13be01c05}, ! Handle
  Title 24-2008 Nonres 15 Roof Attic and Other, ! Name
  ,                                       ! Surface Rendering Name
  {29a27db9-cf83-4e50-8e2e-9aff70c2b6ce}, ! Layer 1
  {aa82206a-aafe-4d3c-9c7a-7de30f202ff9}, ! Layer 2
  {7e894ff6-76a6-4710-8036-be1c60dd4767}, ! Layer 3
  {2f2cbd76-f1d1-4c52-8b93-eca104495052}; ! Layer 4

OS:ComponentCost:LineItem,
  {8077e689-faaa-421d-b078-baa5d3f0369a}, ! Handle
  Title 24-2008 Nonres 15 Roof Attic and Other, ! Name
  ,                                       ! Type
  Construction,                           ! Line Item Type
  Title 24-2008 Nonres 15 Roof Attic and Other, ! Item Name
  ,                                       ! Object End Use Key
  ,                                       ! Quantity {dimensionless}
  33.009,                                 ! Material Cost {$}
  CostPerArea;                            ! Material Cost Units

