
OS:Version,
  {bda9a6f6-21c0-4cc6-9414-ff35a3cd845d}, ! Handle
  0.9.3;                                  ! Version Identifier

OS:Construction,
  {ff26a08d-e4ed-4e2f-a5bc-598724b08835}, ! Handle
  90.1-1999 Res B11 Ext Wall Steel-Framed, ! Name
  ,                                       ! Surface Rendering Name
  {f415dda7-d38f-48dd-b145-1d62cc394531}, ! Layer 1
  {f5299145-4649-4524-ab1a-3aa1c926dbf5}, ! Layer 2
  {78b8f50f-6472-446b-9e96-267a30d5bb58}; ! Layer 3

OS:Material:NoMass,
  {f415dda7-d38f-48dd-b145-1d62cc394531}, ! Handle
  MAT-SHEATH,                             ! Name
  Rough,                                  ! Roughness
  0.36256,                                ! Thermal Resistance {m2-K/W}
  0.9,                                    ! Thermal Absorptance
  0.7,                                    ! Solar Absorptance
  0.7;                                    ! Visible Absorptance

OS:Material,
  {f5299145-4649-4524-ab1a-3aa1c926dbf5}, ! Handle
  Wall Insulation [6],                    ! Name
  MediumRough,                            ! Roughness
  0.0678449,                              ! Thickness {m}
  0.045,                                  ! Conductivity {W/m-K}
  265,                                    ! Density {kg/m3}
  836.8,                                  ! Specific Heat {J/kg-K}
  0.9,                                    ! Thermal Absorptance
  0.7,                                    ! Solar Absorptance
  0.7;                                    ! Visible Absorptance

OS:Material,
  {78b8f50f-6472-446b-9e96-267a30d5bb58}, ! Handle
  1/2IN Gypsum,                           ! Name
  Smooth,                                 ! Roughness
  0.01271,                                ! Thickness {m}
  0.16,                                   ! Conductivity {W/m-K}
  784.9,                                  ! Density {kg/m3}
  830,                                    ! Specific Heat {J/kg-K}
  0.9,                                    ! Thermal Absorptance
  0.92,                                   ! Solar Absorptance
  0.92;                                   ! Visible Absorptance

OS:ComponentCost:LineItem,
  {2bfc80bc-c85d-47c0-bc8f-fa419ffe4724}, ! Handle
  90.1-1999 Res B11 Ext Wall Steel-Framed, ! Name
  ,                                       ! Type
  Construction,                           ! Line Item Type
  90.1-1999 Res B11 Ext Wall Steel-Framed, ! Item Name
  ,                                       ! Object End Use Key
  ,                                       ! Quantity {dimensionless}
  91.749,                                 ! Material Cost {$}
  CostPerArea;                            ! Material Cost Units

OS:ComponentData,
  {debdfb54-e4ff-489c-8253-222f0259467c}, ! Handle
  Component Data 1,                       ! Name
  {432429be-d210-4230-9483-ee044cc90e1b}, ! UUID
  {290880b1-40a2-4db3-a40c-5509c62fe682}, ! Version UUID
  1363981210,                             ! Creation Timestamp
  1363981210,                             ! Version Timestamp
  {ff26a08d-e4ed-4e2f-a5bc-598724b08835}, ! Name of Object 1
  {f415dda7-d38f-48dd-b145-1d62cc394531}, ! Name of Object 2
  {f5299145-4649-4524-ab1a-3aa1c926dbf5}, ! Name of Object 3
  {78b8f50f-6472-446b-9e96-267a30d5bb58}, ! Name of Object 4
  {2bfc80bc-c85d-47c0-bc8f-fa419ffe4724}; ! Name of Object 5

