
OS:Version,
  {bc1e0538-6747-4f2c-a6fb-5463ff1af312}, ! Handle
  0.9.3;                                  ! Version Identifier

OS:Construction,
  {daf49950-2172-4da6-a79b-6dd170aef2d8}, ! Handle
  189.1-2009 Nonres 8A Exposed Floor Mass, ! Name
  ,                                       ! Surface Rendering Name
  {139ac68e-ca26-44e1-9f37-33ce0eb28b5d}, ! Layer 1
  {46a11199-4a54-4a47-b436-a431270aa335}, ! Layer 2
  {b296e19e-85f1-4e28-9ee8-c555f0dbbe8e}; ! Layer 3

OS:Material,
  {139ac68e-ca26-44e1-9f37-33ce0eb28b5d}, ! Handle
  Floor Insulation [11],                  ! Name
  MediumRough,                            ! Roughness
  0.152225,                               ! Thickness {m}
  0.045,                                  ! Conductivity {W/m-K}
  265,                                    ! Density {kg/m3}
  836.8,                                  ! Specific Heat {J/kg-K}
  0.9,                                    ! Thermal Absorptance
  0.7,                                    ! Solar Absorptance
  0.7;                                    ! Visible Absorptance

OS:Material,
  {46a11199-4a54-4a47-b436-a431270aa335}, ! Handle
  MAT-CC05 8 HW CONCRETE,                 ! Name
  Rough,                                  ! Roughness
  0.20321,                                ! Thickness {m}
  1.311,                                  ! Conductivity {W/m-K}
  2240,                                   ! Density {kg/m3}
  836.8,                                  ! Specific Heat {J/kg-K}
  0.9,                                    ! Thermal Absorptance
  0.7,                                    ! Solar Absorptance
  0.7;                                    ! Visible Absorptance

OS:Material:NoMass,
  {b296e19e-85f1-4e28-9ee8-c555f0dbbe8e}, ! Handle
  CP02 CARPET PAD,                        ! Name
  VeryRough,                              ! Roughness
  0.21648,                                ! Thermal Resistance {m2-K/W}
  0.9,                                    ! Thermal Absorptance
  0.7,                                    ! Solar Absorptance
  0.8;                                    ! Visible Absorptance

OS:ComponentCost:LineItem,
  {919b6c5f-0197-4bb4-8738-1cee59f27539}, ! Handle
  189.1-2009 Nonres 8A Exposed Floor Mass, ! Name
  ,                                       ! Type
  Construction,                           ! Line Item Type
  189.1-2009 Nonres 8A Exposed Floor Mass, ! Item Name
  ,                                       ! Object End Use Key
  ,                                       ! Quantity {dimensionless}
  66.669,                                 ! Material Cost {$}
  CostPerArea;                            ! Material Cost Units

