
OS:Version,
  {d759e310-c218-4f08-bca3-a0df4f4d8e24}, ! Handle
  0.9.3;                                  ! Version Identifier

OS:Construction,
  {88e4ec67-7653-47ec-b962-5871a165864e}, ! Handle
  90.1-1999 Res B9 Roof Attic and Other,  ! Name
  ,                                       ! Surface Rendering Name
  {f79f9d33-bba2-4bbb-a4dd-17c590a92610}, ! Layer 1
  {2d9f2b4f-167c-457d-93ef-236601cd5946}, ! Layer 2
  {ae794a7a-e23d-4482-b364-be853e9ade1e}, ! Layer 3
  {2da607b8-4d19-4fa0-a09d-8a6e027f756a}; ! Layer 4

OS:Material,
  {f79f9d33-bba2-4bbb-a4dd-17c590a92610}, ! Handle
  Wood Shingles,                          ! Name
  VeryRough,                              ! Roughness
  0.0178,                                 ! Thickness {m}
  0.115,                                  ! Conductivity {W/m-K}
  513,                                    ! Density {kg/m3}
  1255,                                   ! Specific Heat {J/kg-K}
  0.9,                                    ! Thermal Absorptance
  0.78,                                   ! Solar Absorptance
  0.78;                                   ! Visible Absorptance

OS:Material,
  {2d9f2b4f-167c-457d-93ef-236601cd5946}, ! Handle
  1IN Wood Decking,                       ! Name
  MediumSmooth,                           ! Roughness
  0.0254,                                 ! Thickness {m}
  0.1211,                                 ! Conductivity {W/m-K}
  593,                                    ! Density {kg/m3}
  2510,                                   ! Specific Heat {J/kg-K}
  0.9,                                    ! Thermal Absorptance
  0.78,                                   ! Solar Absorptance
  0.78;                                   ! Visible Absorptance

OS:Material,
  {ae794a7a-e23d-4482-b364-be853e9ade1e}, ! Handle
  Roof Insulation [2],                    ! Name
  MediumRough,                            ! Roughness
  0.221604,                               ! Thickness {m}
  0.049,                                  ! Conductivity {W/m-K}
  265,                                    ! Density {kg/m3}
  836.8,                                  ! Specific Heat {J/kg-K}
  0.9,                                    ! Thermal Absorptance
  0.7,                                    ! Solar Absorptance
  0.7;                                    ! Visible Absorptance

OS:Material,
  {2da607b8-4d19-4fa0-a09d-8a6e027f756a}, ! Handle
  1/2IN Gypsum,                           ! Name
  Smooth,                                 ! Roughness
  0.01271,                                ! Thickness {m}
  0.16,                                   ! Conductivity {W/m-K}
  784.9,                                  ! Density {kg/m3}
  830,                                    ! Specific Heat {J/kg-K}
  0.9,                                    ! Thermal Absorptance
  0.92,                                   ! Solar Absorptance
  0.92;                                   ! Visible Absorptance

OS:ComponentCost:LineItem,
  {70622d63-eea8-4fcc-a33c-02a3227e6edb}, ! Handle
  90.1-1999 Res B9 Roof Attic and Other,  ! Name
  ,                                       ! Type
  Construction,                           ! Line Item Type
  90.1-1999 Res B9 Roof Attic and Other,  ! Item Name
  ,                                       ! Object End Use Key
  ,                                       ! Quantity {dimensionless}
  33.39,                                  ! Material Cost {$}
  CostPerArea;                            ! Material Cost Units

