
OS:Version,
  {b8b74a65-c810-4e44-afa8-e8182a38293a}, ! Handle
  0.9.3;                                  ! Version Identifier

OS:ComponentCost:LineItem,
  {0461273e-d05b-4a93-bdb6-cda055f580bb}, ! Handle
  AEDG SHC Nonres 6B Door Swinging,       ! Name
  ,                                       ! Type
  Construction,                           ! Line Item Type
  AEDG SHC Nonres 6B Door Swinging,       ! Item Name
  ,                                       ! Object End Use Key
  ,                                       ! Quantity {dimensionless}
  0,                                      ! Material Cost {$}
  CostPerArea;                            ! Material Cost Units

OS:Material,
  {1ddd5c28-a174-49d7-9ebd-db3790fbfa1b}, ! Handle
  METAL Door Medium 18Ga_2,               ! Name
  Smooth,                                 ! Roughness
  0.0013106,                              ! Thickness {m}
  45.3149,                                ! Conductivity {W/m-K}
  7833.03,                                ! Density {kg/m3}
  502.08,                                 ! Specific Heat {J/kg-K}
  0.8,                                    ! Thermal Absorptance
  0.5,                                    ! Solar Absorptance
  0.5;                                    ! Visible Absorptance

OS:Material,
  {08637f85-0462-4131-aa43-c0864d84c397}, ! Handle
  METAL Door Medium 18Ga_1,               ! Name
  Smooth,                                 ! Roughness
  0.0013106,                              ! Thickness {m}
  45.3149,                                ! Conductivity {W/m-K}
  7833.03,                                ! Density {kg/m3}
  502.08,                                 ! Specific Heat {J/kg-K}
  0.8,                                    ! Thermal Absorptance
  0.5,                                    ! Solar Absorptance
  0.5;                                    ! Visible Absorptance

OS:Material:NoMass,
  {5f952c6b-96c7-49cd-8c39-ab3c4e9a5563}, ! Handle
  AIR [2],                                ! Name
  Smooth,                                 ! Roughness
  0.352085,                               ! Thermal Resistance {m2-K/W}
  0.8,                                    ! Thermal Absorptance
  0.5,                                    ! Solar Absorptance
  0.5;                                    ! Visible Absorptance

OS:Construction,
  {6ad09e9e-d75b-493f-9a1d-0679b36c6505}, ! Handle
  AEDG SHC Nonres 6B Door Swinging,       ! Name
  ,                                       ! Surface Rendering Name
  {08637f85-0462-4131-aa43-c0864d84c397}, ! Layer 1
  {5f952c6b-96c7-49cd-8c39-ab3c4e9a5563}, ! Layer 2
  {1ddd5c28-a174-49d7-9ebd-db3790fbfa1b}; ! Layer 3

