
OS:Version,
  {7148a38f-d3a3-4b39-a1ae-11052db72f3a}, ! Handle
  0.9.3;                                  ! Version Identifier

OS:Material,
  {05d3bb8a-72b3-44a0-8b2c-7576fa09f0d4}, ! Handle
  1/2IN Gypsum,                           ! Name
  Smooth,                                 ! Roughness
  0.01271,                                ! Thickness {m}
  0.16,                                   ! Conductivity {W/m-K}
  784.9,                                  ! Density {kg/m3}
  830,                                    ! Specific Heat {J/kg-K}
  0.9,                                    ! Thermal Absorptance
  0.92,                                   ! Solar Absorptance
  0.92;                                   ! Visible Absorptance

OS:ComponentCost:LineItem,
  {0afb2dca-065f-4845-bc98-2155c00516d9}, ! Handle
  90.1-2001 Nonres B6 Ext Wall Mass,      ! Name
  ,                                       ! Type
  Construction,                           ! Line Item Type
  90.1-2001 Nonres B6 Ext Wall Mass,      ! Item Name
  ,                                       ! Object End Use Key
  ,                                       ! Quantity {dimensionless}
  41.397,                                 ! Material Cost {$}
  CostPerArea;                            ! Material Cost Units

OS:Construction,
  {17e9cdfd-bb4c-4376-aed7-c971425d4291}, ! Handle
  90.1-2001 Nonres B6 Ext Wall Mass,      ! Name
  ,                                       ! Surface Rendering Name
  {7e9408e8-9b72-4836-81be-c60e2b5af3b2}, ! Layer 1
  {547a55d5-cc92-423e-871e-ebae35f85b63}, ! Layer 2
  {05d3bb8a-72b3-44a0-8b2c-7576fa09f0d4}; ! Layer 3

OS:Material,
  {7e9408e8-9b72-4836-81be-c60e2b5af3b2}, ! Handle
  1IN Stucco,                             ! Name
  Smooth,                                 ! Roughness
  0.0253,                                 ! Thickness {m}
  0.6918,                                 ! Conductivity {W/m-K}
  1858,                                   ! Density {kg/m3}
  837,                                    ! Specific Heat {J/kg-K}
  0.9,                                    ! Thermal Absorptance
  0.92,                                   ! Solar Absorptance
  0.92;                                   ! Visible Absorptance

OS:Material,
  {547a55d5-cc92-423e-871e-ebae35f85b63}, ! Handle
  8IN Concrete HW,                        ! Name
  MediumRough,                            ! Roughness
  0.2033,                                 ! Thickness {m}
  1.7296,                                 ! Conductivity {W/m-K}
  2243,                                   ! Density {kg/m3}
  837,                                    ! Specific Heat {J/kg-K}
  0.9,                                    ! Thermal Absorptance
  0.65,                                   ! Solar Absorptance
  0.65;                                   ! Visible Absorptance

