
! 
OS:Version,
  {9c37d538-db0d-4a47-9850-5bede7e76bd5}, !- Handle
  1.13.0;                                 !- Version Identifier


! {"nombreProductoCorto": "CLIMALIT PLUS con PLANITHERM 4S F2 44.1 (16 argon90%)44.2", "codigoEAN": "", "handle": "282d63f8-4e6b-4625-8312-8e1c6a6e949e", "g": 0.4, "tV": 0.64, "u": 1.0, "nombreProducto": "CLIMALIT PLUS con PLANITHERM 4S F2 44.1 (16 argon90%)44.2\nU:1.0 W/m2K - g:0.40 - Tv: 0.64"}
OS:WindowMaterial:SimpleGlazingSystem,
  {282d63f8-4e6b-4625-8312-8e1c6a6e949e}, !- Handle
  CLIMALIT PLUS con PLANITHERM 4S F2 44.1 (16 argon90%)44.2, !- Name
  1.0,                                    !- U-Factor {W/m2-K}
  0.4,                                    !- Solar Heat Gain Coefficient
  0.64;                                    !- Visible Transmittance     
  
  
OS:Construction,
  {9dc15c21-4001-4341-8f99-1d82252f0ad2}, !- Handle
  CLIMALIT PLUS con PLANITHERM 4S F2 44.1 (16 argon90%)44.2,                         !- Name
  ,                                       !- Surface Rendering Name
  {282d63f8-4e6b-4625-8312-8e1c6a6e949e}; !- Layer 1  

