
OS:Version,
  {25d01b40-6533-49b9-801e-8deb1adfbcc4}, ! Handle
  0.9.3;                                  ! Version Identifier

OS:ComponentCost:LineItem,
  {a7fb1758-a391-48e6-bed5-51c336150a3b}, ! Handle
  90.1-2001 Res B7 Ext Wall Metal Building, ! Name
  ,                                       ! Type
  Construction,                           ! Line Item Type
  90.1-2001 Res B7 Ext Wall Metal Building, ! Item Name
  ,                                       ! Object End Use Key
  ,                                       ! Quantity {dimensionless}
  98.78,                                  ! Material Cost {$}
  CostPerArea;                            ! Material Cost Units

OS:Material,
  {3aede584-0784-4ef2-87bd-222d9247da89}, ! Handle
  Metal Siding,                           ! Name
  Smooth,                                 ! Roughness
  0.0015,                                 ! Thickness {m}
  44.96,                                  ! Conductivity {W/m-K}
  7688.86,                                ! Density {kg/m3}
  410,                                    ! Specific Heat {J/kg-K}
  0.9,                                    ! Thermal Absorptance
  0.2,                                    ! Solar Absorptance
  0.2;                                    ! Visible Absorptance

OS:Material,
  {50bf8cd6-0e7f-49ef-9cdc-c13e05e97faa}, ! Handle
  Wall Insulation,                        ! Name
  MediumRough,                            ! Roughness
  0.0598725,                              ! Thickness {m}
  0.045,                                  ! Conductivity {W/m-K}
  265,                                    ! Density {kg/m3}
  836.8,                                  ! Specific Heat {J/kg-K}
  0.9,                                    ! Thermal Absorptance
  0.7,                                    ! Solar Absorptance
  0.7;                                    ! Visible Absorptance

OS:Construction,
  {db30697b-5fd3-4100-8314-8712a7f5769b}, ! Handle
  90.1-2001 Res B7 Ext Wall Metal Building, ! Name
  ,                                       ! Surface Rendering Name
  {3aede584-0784-4ef2-87bd-222d9247da89}, ! Layer 1
  {50bf8cd6-0e7f-49ef-9cdc-c13e05e97faa}, ! Layer 2
  {1ebb52aa-b167-47ea-98ed-f40809e084da}; ! Layer 3

OS:Material,
  {1ebb52aa-b167-47ea-98ed-f40809e084da}, ! Handle
  1/2IN Gypsum,                           ! Name
  Smooth,                                 ! Roughness
  0.01271,                                ! Thickness {m}
  0.16,                                   ! Conductivity {W/m-K}
  784.9,                                  ! Density {kg/m3}
  830,                                    ! Specific Heat {J/kg-K}
  0.9,                                    ! Thermal Absorptance
  0.92,                                   ! Solar Absorptance
  0.92;                                   ! Visible Absorptance

