
OS:Version,
  {51013b59-c5de-446c-82f6-2f129e108c34}, ! Handle
  0.9.3;                                  ! Version Identifier

OS:Construction,
  {1edd822f-db35-41cb-ab10-3b2c86f2d15d}, ! Handle
  189.1-2009 Res 8A Skylight without Curb, ! Name
  ,                                       ! Surface Rendering Name
  {c8def9ad-7178-46b4-9739-24f23c1fa406}; ! Layer 1

OS:WindowMaterial:Glazing,
  {c8def9ad-7178-46b4-9739-24f23c1fa406}, ! Handle
  Theoretical Glass [222],                ! Name
  SpectralAverage,                        ! Optical Data Type
  ,                                       ! Window Glass Spectral Data Set Name
  0.003,                                  ! Thickness {m}
  0.43998,                                ! Solar Transmittance at Normal Incidence
  0.51002,                                ! Front Side Solar Reflectance at Normal Incidence
  0.51002,                                ! Back Side Solar Reflectance at Normal Incidence
  0.460166,                               ! Visible Transmittance at Normal Incidence
  0.489834,                               ! Front Side Visible Reflectance at Normal Incidence
  0.489834,                               ! Back Side Visible Reflectance at Normal Incidence
  0,                                      ! Infrared Transmittance at Normal Incidence
  0.9,                                    ! Front Side Infrared Hemispherical Emissivity
  0.9,                                    ! Back Side Infrared Hemispherical Emissivity
  0.0133196;                              ! Conductivity {W/m-K}

