
OS:Version,
  {3de68cad-1262-4643-9d19-fb305c068ab7}, ! Handle
  0.9.3;                                  ! Version Identifier

OS:Construction,
  {e0667eba-4c23-471d-9e4c-183574a37c10}, ! Handle
  189.1-2009 Res 8A Skylight without Curb, ! Name
  ,                                       ! Surface Rendering Name
  {a5f01419-2f1e-46f3-8e21-9cec806b1d8b}; ! Layer 1

OS:WindowMaterial:Glazing,
  {a5f01419-2f1e-46f3-8e21-9cec806b1d8b}, ! Handle
  Theoretical Glass [222],                ! Name
  SpectralAverage,                        ! Optical Data Type
  ,                                       ! Window Glass Spectral Data Set Name
  0.003,                                  ! Thickness {m}
  0.43998,                                ! Solar Transmittance at Normal Incidence
  0.51002,                                ! Front Side Solar Reflectance at Normal Incidence
  0.51002,                                ! Back Side Solar Reflectance at Normal Incidence
  0.460166,                               ! Visible Transmittance at Normal Incidence
  0.489834,                               ! Front Side Visible Reflectance at Normal Incidence
  0.489834,                               ! Back Side Visible Reflectance at Normal Incidence
  0,                                      ! Infrared Transmittance at Normal Incidence
  0.9,                                    ! Front Side Infrared Hemispherical Emissivity
  0.9,                                    ! Back Side Infrared Hemispherical Emissivity
  0.0133196;                              ! Conductivity {W/m-K}

OS:ComponentData,
  {d4905847-cad2-4a51-8664-eb576ad88ff4}, ! Handle
  Component Data 1,                       ! Name
  {18f201b2-4762-4712-9011-79a80763c567}, ! UUID
  {cc7a26cc-94a7-4fa6-a25d-9d233d21e2ab}, ! Version UUID
  1363980990,                             ! Creation Timestamp
  1363980990,                             ! Version Timestamp
  {e0667eba-4c23-471d-9e4c-183574a37c10}, ! Name of Object 1
  {a5f01419-2f1e-46f3-8e21-9cec806b1d8b}; ! Name of Object 2

