
OS:Version,
  {d26ac27c-6367-4afc-bf9c-c470d80218d0}, ! Handle
  0.9.3;                                  ! Version Identifier

OS:Material,
  {751cc338-c69f-4410-87e1-aea9ea43a752}, ! Handle
  1/2IN Gypsum,                           ! Name
  Smooth,                                 ! Roughness
  0.01271,                                ! Thickness {m}
  0.16,                                   ! Conductivity {W/m-K}
  784.9,                                  ! Density {kg/m3}
  830,                                    ! Specific Heat {J/kg-K}
  0.9,                                    ! Thermal Absorptance
  0.92,                                   ! Solar Absorptance
  0.92;                                   ! Visible Absorptance

OS:ComponentCost:LineItem,
  {c70bf6a7-2636-4dde-8bf9-1a192a0b1855}, ! Handle
  90.1-1999 Nonres B3 Roof Attic and Other, ! Name
  ,                                       ! Type
  Construction,                           ! Line Item Type
  90.1-1999 Nonres B3 Roof Attic and Other, ! Item Name
  ,                                       ! Object End Use Key
  ,                                       ! Quantity {dimensionless}
  33.39,                                  ! Material Cost {$}
  CostPerArea;                            ! Material Cost Units

OS:Material,
  {fca3af59-308b-4f4a-8fd3-f9481aafa245}, ! Handle
  Roof Insulation [2],                    ! Name
  MediumRough,                            ! Roughness
  0.221604,                               ! Thickness {m}
  0.049,                                  ! Conductivity {W/m-K}
  265,                                    ! Density {kg/m3}
  836.8,                                  ! Specific Heat {J/kg-K}
  0.9,                                    ! Thermal Absorptance
  0.7,                                    ! Solar Absorptance
  0.7;                                    ! Visible Absorptance

OS:Material,
  {1bc6e9c5-0536-4cdb-988e-2eb2325de468}, ! Handle
  1IN Wood Decking,                       ! Name
  MediumSmooth,                           ! Roughness
  0.0254,                                 ! Thickness {m}
  0.1211,                                 ! Conductivity {W/m-K}
  593,                                    ! Density {kg/m3}
  2510,                                   ! Specific Heat {J/kg-K}
  0.9,                                    ! Thermal Absorptance
  0.78,                                   ! Solar Absorptance
  0.78;                                   ! Visible Absorptance

OS:Construction,
  {7769f5ac-4166-4785-a084-1f621737999b}, ! Handle
  90.1-1999 Nonres B3 Roof Attic and Other, ! Name
  ,                                       ! Surface Rendering Name
  {99b0f11f-668c-4624-87e4-01f2b3d9b6ff}, ! Layer 1
  {1bc6e9c5-0536-4cdb-988e-2eb2325de468}, ! Layer 2
  {fca3af59-308b-4f4a-8fd3-f9481aafa245}, ! Layer 3
  {751cc338-c69f-4410-87e1-aea9ea43a752}; ! Layer 4

OS:Material,
  {99b0f11f-668c-4624-87e4-01f2b3d9b6ff}, ! Handle
  Wood Shingles,                          ! Name
  VeryRough,                              ! Roughness
  0.0178,                                 ! Thickness {m}
  0.115,                                  ! Conductivity {W/m-K}
  513,                                    ! Density {kg/m3}
  1255,                                   ! Specific Heat {J/kg-K}
  0.9,                                    ! Thermal Absorptance
  0.78,                                   ! Solar Absorptance
  0.78;                                   ! Visible Absorptance

