
OS:Version,
  {de7820c3-939c-4907-af4a-577c098a94f8}, ! Handle
  0.9.3;                                  ! Version Identifier

OS:Material,
  {f3887a88-0b01-4628-8460-924ca1437055}, ! Handle
  Roof Insulation [6],                    ! Name
  MediumRough,                            ! Roughness
  0.147675,                               ! Thickness {m}
  0.049,                                  ! Conductivity {W/m-K}
  265,                                    ! Density {kg/m3}
  836.8,                                  ! Specific Heat {J/kg-K}
  0.9,                                    ! Thermal Absorptance
  0.7,                                    ! Solar Absorptance
  0.7;                                    ! Visible Absorptance

OS:Construction,
  {1fdbf2c2-54b8-4b8d-a4fe-a13ef0b76d5a}, ! Handle
  90.1-1999 Nonres B23 Roof Metal Building, ! Name
  ,                                       ! Surface Rendering Name
  {9108b4d4-1dc7-4696-bde6-5a1855a9d7a4}, ! Layer 1
  {f3887a88-0b01-4628-8460-924ca1437055}; ! Layer 2

OS:Material,
  {9108b4d4-1dc7-4696-bde6-5a1855a9d7a4}, ! Handle
  Metal Roofing,                          ! Name
  MediumSmooth,                           ! Roughness
  0.001524,                               ! Thickness {m}
  45.006,                                 ! Conductivity {W/m-K}
  7680,                                   ! Density {kg/m3}
  418.4,                                  ! Specific Heat {J/kg-K}
  0.9,                                    ! Thermal Absorptance
  0.7,                                    ! Solar Absorptance
  0.3;                                    ! Visible Absorptance

OS:ComponentCost:LineItem,
  {0aea8fc7-bc51-4fc3-9be5-b5f2c2d820c5}, ! Handle
  90.1-1999 Nonres B23 Roof Metal Building, ! Name
  ,                                       ! Type
  Construction,                           ! Line Item Type
  90.1-1999 Nonres B23 Roof Metal Building, ! Item Name
  ,                                       ! Object End Use Key
  ,                                       ! Quantity {dimensionless}
  40.571,                                 ! Material Cost {$}
  CostPerArea;                            ! Material Cost Units

