
OS:Version,
  {ff0286f0-f58f-484a-ba71-3abc42f5a207}, ! Handle
  0.9.3;                                  ! Version Identifier

OS:Construction,
  {464916e8-477e-4522-a2ee-9314d11d84a2}, ! Handle
  90.1-1999 Nonres B23 Roof Metal Building, ! Name
  ,                                       ! Surface Rendering Name
  {8d830466-4cb3-40ab-b121-8a37dd3ca8e1}, ! Layer 1
  {7fbab4fd-9216-4436-9706-6bf9a9749f1a}; ! Layer 2

OS:Material,
  {8d830466-4cb3-40ab-b121-8a37dd3ca8e1}, ! Handle
  Metal Roofing,                          ! Name
  MediumSmooth,                           ! Roughness
  0.001524,                               ! Thickness {m}
  45.006,                                 ! Conductivity {W/m-K}
  7680,                                   ! Density {kg/m3}
  418.4,                                  ! Specific Heat {J/kg-K}
  0.9,                                    ! Thermal Absorptance
  0.7,                                    ! Solar Absorptance
  0.3;                                    ! Visible Absorptance

OS:Material,
  {7fbab4fd-9216-4436-9706-6bf9a9749f1a}, ! Handle
  Roof Insulation [6],                    ! Name
  MediumRough,                            ! Roughness
  0.147675,                               ! Thickness {m}
  0.049,                                  ! Conductivity {W/m-K}
  265,                                    ! Density {kg/m3}
  836.8,                                  ! Specific Heat {J/kg-K}
  0.9,                                    ! Thermal Absorptance
  0.7,                                    ! Solar Absorptance
  0.7;                                    ! Visible Absorptance

OS:ComponentCost:LineItem,
  {cef61460-24c0-4784-ad30-ddc0e0584798}, ! Handle
  90.1-1999 Nonres B23 Roof Metal Building, ! Name
  ,                                       ! Type
  Construction,                           ! Line Item Type
  90.1-1999 Nonres B23 Roof Metal Building, ! Item Name
  ,                                       ! Object End Use Key
  ,                                       ! Quantity {dimensionless}
  40.571,                                 ! Material Cost {$}
  CostPerArea;                            ! Material Cost Units

OS:ComponentData,
  {35ee0a51-8da3-4b13-b38e-3051c1b0a07f}, ! Handle
  Component Data 1,                       ! Name
  {33376672-7e9c-4597-9a1b-0a17d0334779}, ! UUID
  {894dca4e-bfc8-4991-8f16-3be4607f7e01}, ! Version UUID
  1363981142,                             ! Creation Timestamp
  1363981142,                             ! Version Timestamp
  {464916e8-477e-4522-a2ee-9314d11d84a2}, ! Name of Object 1
  {8d830466-4cb3-40ab-b121-8a37dd3ca8e1}, ! Name of Object 2
  {7fbab4fd-9216-4436-9706-6bf9a9749f1a}, ! Name of Object 3
  {cef61460-24c0-4784-ad30-ddc0e0584798}; ! Name of Object 4

