
OS:Version,
  {a176e1c7-3017-4aee-a1ec-66f0ca484635}, !- Handle
  1.1.0;                                  !- Version Identifier

OS:Construction,
  {c935055f-a8d8-4c88-a593-5e9b7166a1c0}, !- Handle
  Sgl Ref-C-M Clr 6mm,                    !- Name
  ,                                       !- Surface Rendering Name
  {d2434e64-f0d8-4542-b574-895aa27f68fa}; !- Layer 1

OS:WindowMaterial:Glazing,
  {d2434e64-f0d8-4542-b574-895aa27f68fa}, !- Handle
  REF C CLEAR MID 6MM,                    !- Name
  SpectralAverage,                        !- Optical Data Type
  ,                                       !- Window Glass Spectral Data Set Name
  0.006,                                  !- Thickness {m}
  0.17,                                   !- Solar Transmittance at Normal Incidence
  0.2,                                    !- Front Side Solar Reflectance at Normal Incidence
  0.42,                                   !- Back Side Solar Reflectance at Normal Incidence
  0.19,                                   !- Visible Transmittance at Normal Incidence
  0.21,                                   !- Front Side Visible Reflectance at Normal Incidence
  0.38,                                   !- Back Side Visible Reflectance at Normal Incidence
  0,                                      !- Infrared Transmittance at Normal Incidence
  0.84,                                   !- Front Side Infrared Hemispherical Emissivity
  0.51,                                   !- Back Side Infrared Hemispherical Emissivity
  0.9;                                    !- Conductivity {W/m-K}

