
OS:Version,
  {ea25bd6d-ff92-4c6a-8d46-7dde29692080}, ! Handle
  0.9.3;                                  ! Version Identifier

OS:Material,
  {3c046cb5-4cd0-4baa-bf7e-03d0ec6277ce}, ! Handle
  1/2IN Gypsum,                           ! Name
  Smooth,                                 ! Roughness
  0.01271,                                ! Thickness {m}
  0.16,                                   ! Conductivity {W/m-K}
  784.9,                                  ! Density {kg/m3}
  830,                                    ! Specific Heat {J/kg-K}
  0.9,                                    ! Thermal Absorptance
  0.92,                                   ! Solar Absorptance
  0.92;                                   ! Visible Absorptance

OS:Material,
  {99b3b74b-93a6-4294-8d88-a3343497e1ae}, ! Handle
  Wood Siding,                            ! Name
  MediumSmooth,                           ! Roughness
  0.01,                                   ! Thickness {m}
  0.11,                                   ! Conductivity {W/m-K}
  544.62,                                 ! Density {kg/m3}
  1210,                                   ! Specific Heat {J/kg-K}
  0.9,                                    ! Thermal Absorptance
  0.78,                                   ! Solar Absorptance
  0.78;                                   ! Visible Absorptance

OS:Construction,
  {796d4e7e-8d64-44fd-a992-36bb8356bce0}, ! Handle
  90.1-1999 Res B12 Ext Wall Wood-Framed and Other, ! Name
  ,                                       ! Surface Rendering Name
  {99b3b74b-93a6-4294-8d88-a3343497e1ae}, ! Layer 1
  {d98e3c51-ae58-4c42-b40c-4e0bed633d91}, ! Layer 2
  {3c046cb5-4cd0-4baa-bf7e-03d0ec6277ce}; ! Layer 3

OS:Material,
  {d98e3c51-ae58-4c42-b40c-4e0bed633d91}, ! Handle
  Wall Insulation [2],                    ! Name
  MediumRough,                            ! Roughness
  0.0746874,                              ! Thickness {m}
  0.045,                                  ! Conductivity {W/m-K}
  265,                                    ! Density {kg/m3}
  836.8,                                  ! Specific Heat {J/kg-K}
  0.9,                                    ! Thermal Absorptance
  0.7,                                    ! Solar Absorptance
  0.7;                                    ! Visible Absorptance

OS:ComponentCost:LineItem,
  {aee6a01a-5c57-4edc-8e09-9d81b2687f99}, ! Handle
  90.1-1999 Res B12 Ext Wall Wood-Framed and Other, ! Name
  ,                                       ! Type
  Construction,                           ! Line Item Type
  90.1-1999 Res B12 Ext Wall Wood-Framed and Other, ! Item Name
  ,                                       ! Object End Use Key
  ,                                       ! Quantity {dimensionless}
  73.056,                                 ! Material Cost {$}
  CostPerArea;                            ! Material Cost Units

