
OS:Version,
  {995c4823-20dc-44cb-b1cd-a13365cd749a}, ! Handle
  0.9.3;                                  ! Version Identifier

OS:Construction,
  {5bf22eb7-9d4c-4f27-8574-a4cce2609145}, ! Handle
  90.1-1999 Res B17 Ext Wall Wood-Framed and Other, ! Name
  ,                                       ! Surface Rendering Name
  {346ac3c1-1e98-441b-8217-0d871965dd09}, ! Layer 1
  {cada7948-e094-4698-adfe-5889e776dc64}, ! Layer 2
  {0f7ac316-6e7e-4a71-8ddf-e642bb029051}; ! Layer 3

OS:Material,
  {346ac3c1-1e98-441b-8217-0d871965dd09}, ! Handle
  Wood Siding,                            ! Name
  MediumSmooth,                           ! Roughness
  0.01,                                   ! Thickness {m}
  0.11,                                   ! Conductivity {W/m-K}
  544.62,                                 ! Density {kg/m3}
  1210,                                   ! Specific Heat {J/kg-K}
  0.9,                                    ! Thermal Absorptance
  0.78,                                   ! Solar Absorptance
  0.78;                                   ! Visible Absorptance

OS:Material,
  {cada7948-e094-4698-adfe-5889e776dc64}, ! Handle
  Wall Insulation [2],                    ! Name
  MediumRough,                            ! Roughness
  0.0746874,                              ! Thickness {m}
  0.045,                                  ! Conductivity {W/m-K}
  265,                                    ! Density {kg/m3}
  836.8,                                  ! Specific Heat {J/kg-K}
  0.9,                                    ! Thermal Absorptance
  0.7,                                    ! Solar Absorptance
  0.7;                                    ! Visible Absorptance

OS:Material,
  {0f7ac316-6e7e-4a71-8ddf-e642bb029051}, ! Handle
  1/2IN Gypsum,                           ! Name
  Smooth,                                 ! Roughness
  0.01271,                                ! Thickness {m}
  0.16,                                   ! Conductivity {W/m-K}
  784.9,                                  ! Density {kg/m3}
  830,                                    ! Specific Heat {J/kg-K}
  0.9,                                    ! Thermal Absorptance
  0.92,                                   ! Solar Absorptance
  0.92;                                   ! Visible Absorptance

OS:ComponentCost:LineItem,
  {14341f84-7d1a-4400-85a5-e28a4d777964}, ! Handle
  90.1-1999 Res B17 Ext Wall Wood-Framed and Other, ! Name
  ,                                       ! Type
  Construction,                           ! Line Item Type
  90.1-1999 Res B17 Ext Wall Wood-Framed and Other, ! Item Name
  ,                                       ! Object End Use Key
  ,                                       ! Quantity {dimensionless}
  73.056,                                 ! Material Cost {$}
  CostPerArea;                            ! Material Cost Units

OS:ComponentData,
  {0832721a-ea81-4e9a-be71-b5568db0a750}, ! Handle
  Component Data 1,                       ! Name
  {a74d3729-5b67-4d1b-a15f-45bdb26f68c2}, ! UUID
  {c18d322a-d4e4-4f05-a4ad-06fcef97a237}, ! Version UUID
  1363981238,                             ! Creation Timestamp
  1363981238,                             ! Version Timestamp
  {5bf22eb7-9d4c-4f27-8574-a4cce2609145}, ! Name of Object 1
  {346ac3c1-1e98-441b-8217-0d871965dd09}, ! Name of Object 2
  {cada7948-e094-4698-adfe-5889e776dc64}, ! Name of Object 3
  {0f7ac316-6e7e-4a71-8ddf-e642bb029051}, ! Name of Object 4
  {14341f84-7d1a-4400-85a5-e28a4d777964}; ! Name of Object 5

