
OS:Version,
  {3d22afb8-8b0a-490b-ace6-b823a54ed3f2}, ! Handle
  0.9.3;                                  ! Version Identifier

OS:Construction,
  {cdd308e2-08d1-44ef-959d-1b6c196a7ea2}, ! Handle
  AEDG-SmOffice 7A Window Fixed,          ! Name
  ,                                       ! Surface Rendering Name
  {cbc1bde1-fb48-4e66-9014-f2f0471549c0}; ! Layer 1

OS:WindowMaterial:Glazing,
  {cbc1bde1-fb48-4e66-9014-f2f0471549c0}, ! Handle
  Theoretical Glass [236],                ! Name
  SpectralAverage,                        ! Optical Data Type
  ,                                       ! Window Glass Spectral Data Set Name
  0.003,                                  ! Thickness {m}
  0.635612,                               ! Solar Transmittance at Normal Incidence
  0.314388,                               ! Front Side Solar Reflectance at Normal Incidence
  0.314388,                               ! Back Side Solar Reflectance at Normal Incidence
  0.706654,                               ! Visible Transmittance at Normal Incidence
  0.243346,                               ! Front Side Visible Reflectance at Normal Incidence
  0.243346,                               ! Back Side Visible Reflectance at Normal Incidence
  0,                                      ! Infrared Transmittance at Normal Incidence
  0.9,                                    ! Front Side Infrared Hemispherical Emissivity
  0.9,                                    ! Back Side Infrared Hemispherical Emissivity
  0.008112;                               ! Conductivity {W/m-K}

OS:ComponentCost:LineItem,
  {a8612e96-e278-416d-ab39-c8eb32df406f}, ! Handle
  AEDG-SmOffice 7A Window Fixed,          ! Name
  ,                                       ! Type
  Construction,                           ! Line Item Type
  AEDG-SmOffice 7A Window Fixed,          ! Item Name
  ,                                       ! Object End Use Key
  ,                                       ! Quantity {dimensionless}
  605.632,                                ! Material Cost {$}
  CostPerArea;                            ! Material Cost Units

