
OS:Version,
  {79a105d3-3996-485e-8bb6-a2c8723d5b96}, ! Handle
  0.9.3;                                  ! Version Identifier

OS:ComponentCost:LineItem,
  {39a76955-fafd-4fa2-b89e-f61f244ae3da}, ! Handle
  90.1-1999 Res B8 Window Fixed,          ! Name
  ,                                       ! Type
  Construction,                           ! Line Item Type
  90.1-1999 Res B8 Window Fixed,          ! Item Name
  ,                                       ! Object End Use Key
  ,                                       ! Quantity {dimensionless}
  498.248,                                ! Material Cost {$}
  CostPerArea;                            ! Material Cost Units

OS:WindowMaterial:Glazing,
  {073334b9-0b13-4edb-bc8c-9081450ee544}, ! Handle
  Theoretical Glass [61],                 ! Name
  SpectralAverage,                        ! Optical Data Type
  ,                                       ! Window Glass Spectral Data Set Name
  0.003,                                  ! Thickness {m}
  0.177255,                               ! Solar Transmittance at Normal Incidence
  0.772745,                               ! Front Side Solar Reflectance at Normal Incidence
  0.772745,                               ! Back Side Solar Reflectance at Normal Incidence
  0.192067,                               ! Visible Transmittance at Normal Incidence
  0.757933,                               ! Front Side Visible Reflectance at Normal Incidence
  0.757933,                               ! Back Side Visible Reflectance at Normal Incidence
  0,                                      ! Infrared Transmittance at Normal Incidence
  0.999,                                  ! Front Side Infrared Hemispherical Emissivity
  0.999,                                  ! Back Side Infrared Hemispherical Emissivity
  9.36219;                                ! Conductivity {W/m-K}

OS:Construction,
  {ae789681-7431-46bb-be16-1ff206f17e40}, ! Handle
  90.1-1999 Res B8 Window Fixed,          ! Name
  ,                                       ! Surface Rendering Name
  {073334b9-0b13-4edb-bc8c-9081450ee544}; ! Layer 1

