
OS:Version,
  {7337d999-0054-4f43-9dff-54025a4905ca}, ! Handle
  0.9.3;                                  ! Version Identifier

OS:Material,
  {230f6ac9-ca4e-44da-9ae2-30859befb4eb}, ! Handle
  1/2IN Gypsum,                           ! Name
  Smooth,                                 ! Roughness
  0.01271,                                ! Thickness {m}
  0.16,                                   ! Conductivity {W/m-K}
  784.9,                                  ! Density {kg/m3}
  830,                                    ! Specific Heat {J/kg-K}
  0.9,                                    ! Thermal Absorptance
  0.92,                                   ! Solar Absorptance
  0.92;                                   ! Visible Absorptance

OS:Material,
  {51b10475-be00-474c-ada9-2658d3021725}, ! Handle
  8IN Concrete HW,                        ! Name
  MediumRough,                            ! Roughness
  0.2033,                                 ! Thickness {m}
  1.7296,                                 ! Conductivity {W/m-K}
  2243,                                   ! Density {kg/m3}
  837,                                    ! Specific Heat {J/kg-K}
  0.9,                                    ! Thermal Absorptance
  0.65,                                   ! Solar Absorptance
  0.65;                                   ! Visible Absorptance

OS:Construction,
  {924d7f20-bc04-4ebd-b034-049b1982870e}, ! Handle
  90.1-2001 Res B15 Ext Wall Mass,        ! Name
  ,                                       ! Surface Rendering Name
  {d2ca153f-bdb3-4088-96c5-177a59a496eb}, ! Layer 1
  {51b10475-be00-474c-ada9-2658d3021725}, ! Layer 2
  {b745432c-e443-45c9-ac0a-a1d714a77d1f}, ! Layer 3
  {230f6ac9-ca4e-44da-9ae2-30859befb4eb}; ! Layer 4

OS:Material,
  {d2ca153f-bdb3-4088-96c5-177a59a496eb}, ! Handle
  1IN Stucco,                             ! Name
  Smooth,                                 ! Roughness
  0.0253,                                 ! Thickness {m}
  0.6918,                                 ! Conductivity {W/m-K}
  1858,                                   ! Density {kg/m3}
  837,                                    ! Specific Heat {J/kg-K}
  0.9,                                    ! Thermal Absorptance
  0.92,                                   ! Solar Absorptance
  0.92;                                   ! Visible Absorptance

OS:Material,
  {b745432c-e443-45c9-ac0a-a1d714a77d1f}, ! Handle
  Wall Insulation [5],                    ! Name
  MediumRough,                            ! Roughness
  0.0453274,                              ! Thickness {m}
  0.0432,                                 ! Conductivity {W/m-K}
  91,                                     ! Density {kg/m3}
  837,                                    ! Specific Heat {J/kg-K}
  0.9,                                    ! Thermal Absorptance
  0.5,                                    ! Solar Absorptance
  0.5;                                    ! Visible Absorptance

OS:ComponentCost:LineItem,
  {6499beb8-68e7-4bcb-b36f-85986eeb4284}, ! Handle
  90.1-2001 Res B15 Ext Wall Mass,        ! Name
  ,                                       ! Type
  Construction,                           ! Line Item Type
  90.1-2001 Res B15 Ext Wall Mass,        ! Item Name
  ,                                       ! Object End Use Key
  ,                                       ! Quantity {dimensionless}
  61.418,                                 ! Material Cost {$}
  CostPerArea;                            ! Material Cost Units

