
OS:Version,
  {735c5d83-574f-47f1-a96a-ac0edee61f72}, ! Handle
  0.9.3;                                  ! Version Identifier

OS:Material,
  {6df8cc73-6f64-4b2a-ab02-e5c3af532249}, ! Handle
  Wall Insulation [2],                    ! Name
  MediumRough,                            ! Roughness
  0.0746874,                              ! Thickness {m}
  0.045,                                  ! Conductivity {W/m-K}
  265,                                    ! Density {kg/m3}
  836.8,                                  ! Specific Heat {J/kg-K}
  0.9,                                    ! Thermal Absorptance
  0.7,                                    ! Solar Absorptance
  0.7;                                    ! Visible Absorptance

OS:Material,
  {efbfa9b1-2fac-4a35-89ea-1fa6ca63b13f}, ! Handle
  Wood Siding,                            ! Name
  MediumSmooth,                           ! Roughness
  0.01,                                   ! Thickness {m}
  0.11,                                   ! Conductivity {W/m-K}
  544.62,                                 ! Density {kg/m3}
  1210,                                   ! Specific Heat {J/kg-K}
  0.9,                                    ! Thermal Absorptance
  0.78,                                   ! Solar Absorptance
  0.78;                                   ! Visible Absorptance

OS:Construction,
  {c888ac36-cf1c-475b-9f59-de953f37a0d4}, ! Handle
  90.1-2004 Nonres 3C Ext Wall Wood-Framed and Other, ! Name
  ,                                       ! Surface Rendering Name
  {efbfa9b1-2fac-4a35-89ea-1fa6ca63b13f}, ! Layer 1
  {6df8cc73-6f64-4b2a-ab02-e5c3af532249}, ! Layer 2
  {14c7c7f1-68b5-492b-bdca-9f4376aae056}; ! Layer 3

OS:Material,
  {14c7c7f1-68b5-492b-bdca-9f4376aae056}, ! Handle
  1/2IN Gypsum,                           ! Name
  Smooth,                                 ! Roughness
  0.01271,                                ! Thickness {m}
  0.16,                                   ! Conductivity {W/m-K}
  784.9,                                  ! Density {kg/m3}
  830,                                    ! Specific Heat {J/kg-K}
  0.9,                                    ! Thermal Absorptance
  0.92,                                   ! Solar Absorptance
  0.92;                                   ! Visible Absorptance

OS:ComponentCost:LineItem,
  {cf55aff0-a7ef-43ba-af4d-3781b9e5f71e}, ! Handle
  90.1-2004 Nonres 3C Ext Wall Wood-Framed and Other, ! Name
  ,                                       ! Type
  Construction,                           ! Line Item Type
  90.1-2004 Nonres 3C Ext Wall Wood-Framed and Other, ! Item Name
  ,                                       ! Object End Use Key
  ,                                       ! Quantity {dimensionless}
  73.056,                                 ! Material Cost {$}
  CostPerArea;                            ! Material Cost Units

