
OS:Version,
  {4581f14c-bd89-45a1-8a5b-5c94fbc76a3a}, ! Handle
  0.9.3;                                  ! Version Identifier

OS:Construction,
  {1a433f69-01a6-4be2-ba74-890c741bd2d2}, ! Handle
  90.1-2004 Nonres 3C Ext Wall Wood-Framed and Other, ! Name
  ,                                       ! Surface Rendering Name
  {5deba083-541f-4d97-8d73-f9e46c201fcf}, ! Layer 1
  {31093e21-6d6f-4b8b-8424-c55ce7e8720d}, ! Layer 2
  {34e325f7-1a0c-492b-9e91-9c31507ff73c}; ! Layer 3

OS:Material,
  {5deba083-541f-4d97-8d73-f9e46c201fcf}, ! Handle
  Wood Siding,                            ! Name
  MediumSmooth,                           ! Roughness
  0.01,                                   ! Thickness {m}
  0.11,                                   ! Conductivity {W/m-K}
  544.62,                                 ! Density {kg/m3}
  1210,                                   ! Specific Heat {J/kg-K}
  0.9,                                    ! Thermal Absorptance
  0.78,                                   ! Solar Absorptance
  0.78;                                   ! Visible Absorptance

OS:Material,
  {31093e21-6d6f-4b8b-8424-c55ce7e8720d}, ! Handle
  Wall Insulation [2],                    ! Name
  MediumRough,                            ! Roughness
  0.0746874,                              ! Thickness {m}
  0.045,                                  ! Conductivity {W/m-K}
  265,                                    ! Density {kg/m3}
  836.8,                                  ! Specific Heat {J/kg-K}
  0.9,                                    ! Thermal Absorptance
  0.7,                                    ! Solar Absorptance
  0.7;                                    ! Visible Absorptance

OS:Material,
  {34e325f7-1a0c-492b-9e91-9c31507ff73c}, ! Handle
  1/2IN Gypsum,                           ! Name
  Smooth,                                 ! Roughness
  0.01271,                                ! Thickness {m}
  0.16,                                   ! Conductivity {W/m-K}
  784.9,                                  ! Density {kg/m3}
  830,                                    ! Specific Heat {J/kg-K}
  0.9,                                    ! Thermal Absorptance
  0.92,                                   ! Solar Absorptance
  0.92;                                   ! Visible Absorptance

OS:ComponentCost:LineItem,
  {3d4aa12f-daff-4e0e-b17a-d395721d553d}, ! Handle
  90.1-2004 Nonres 3C Ext Wall Wood-Framed and Other, ! Name
  ,                                       ! Type
  Construction,                           ! Line Item Type
  90.1-2004 Nonres 3C Ext Wall Wood-Framed and Other, ! Item Name
  ,                                       ! Object End Use Key
  ,                                       ! Quantity {dimensionless}
  73.056,                                 ! Material Cost {$}
  CostPerArea;                            ! Material Cost Units

OS:ComponentData,
  {6de57612-6170-4e5e-91d2-dc62944e6778}, ! Handle
  Component Data 1,                       ! Name
  {268cc2a0-a577-4730-a2ee-059a4b25d8fb}, ! UUID
  {26fa2e7d-ff87-49a0-9b69-92497f1548e8}, ! Version UUID
  1363981655,                             ! Creation Timestamp
  1363981655,                             ! Version Timestamp
  {1a433f69-01a6-4be2-ba74-890c741bd2d2}, ! Name of Object 1
  {5deba083-541f-4d97-8d73-f9e46c201fcf}, ! Name of Object 2
  {31093e21-6d6f-4b8b-8424-c55ce7e8720d}, ! Name of Object 3
  {34e325f7-1a0c-492b-9e91-9c31507ff73c}, ! Name of Object 4
  {3d4aa12f-daff-4e0e-b17a-d395721d553d}; ! Name of Object 5

