
OS:Version,
  {9a313c6e-e18f-4e00-a86c-bca38b537151}, ! Handle
  0.9.3;                                  ! Version Identifier

OS:Construction,
  {78e1c1fb-bcf4-4630-9402-ccdc700a4afe}, ! Handle
  90.1-2001 Nonres B15 Ext Slab Unheated - 8in Slab without Carpet, ! Name
  ,                                       ! Surface Rendering Name
  {c63dda0a-aeff-4977-840c-4800feb21f91}; ! Layer 1

OS:Material,
  {c63dda0a-aeff-4977-840c-4800feb21f91}, ! Handle
  MAT-CC05 8 HW CONCRETE,                 ! Name
  Rough,                                  ! Roughness
  0.20321,                                ! Thickness {m}
  1.311,                                  ! Conductivity {W/m-K}
  2240,                                   ! Density {kg/m3}
  836.8,                                  ! Specific Heat {J/kg-K}
  0.9,                                    ! Thermal Absorptance
  0.7,                                    ! Solar Absorptance
  0.7;                                    ! Visible Absorptance

OS:ComponentCost:LineItem,
  {e7b212cc-ab94-4585-81e3-1b0bccb6b10c}, ! Handle
  90.1-2001 Nonres B15 Ext Slab Unheated - 8in Slab without Carpet, ! Name
  ,                                       ! Type
  Construction,                           ! Line Item Type
  90.1-2001 Nonres B15 Ext Slab Unheated - 8in Slab without Carpet, ! Item Name
  ,                                       ! Object End Use Key
  ,                                       ! Quantity {dimensionless}
  45.52,                                  ! Material Cost {$}
  CostPerArea;                            ! Material Cost Units

