
OS:Version,
  {5e1792f1-6810-455d-8ee6-134e417eb487}, ! Handle
  0.9.3;                                  ! Version Identifier

OS:Construction,
  {2222c2f4-16fe-4d83-b448-294e082264f4}, ! Handle
  AEDG-SmOffice 4B Int Wall,              ! Name
  ,                                       ! Surface Rendering Name
  {9711c465-47e6-4b3d-aa5f-84657fa94aae}, ! Layer 1
  {9711c465-47e6-4b3d-aa5f-84657fa94aae}; ! Layer 2

OS:Material,
  {9711c465-47e6-4b3d-aa5f-84657fa94aae}, ! Handle
  GP01 1/2 GYPSUM,                        ! Name
  Smooth,                                 ! Roughness
  0.01271,                                ! Thickness {m}
  0.16,                                   ! Conductivity {W/m-K}
  800,                                    ! Density {kg/m3}
  1090,                                   ! Specific Heat {J/kg-K}
  0.9,                                    ! Thermal Absorptance
  0.7,                                    ! Solar Absorptance
  0.5;                                    ! Visible Absorptance

OS:ComponentCost:LineItem,
  {268fa8bd-a5b0-4265-835a-2575af1a6e58}, ! Handle
  AEDG-SmOffice 4B Int Wall,              ! Name
  ,                                       ! Type
  Construction,                           ! Line Item Type
  AEDG-SmOffice 4B Int Wall,              ! Item Name
  ,                                       ! Object End Use Key
  ,                                       ! Quantity {dimensionless}
  0,                                      ! Material Cost {$}
  CostPerArea;                            ! Material Cost Units

OS:ComponentData,
  {2cefbc4a-1cb1-4cc5-a5f5-49f8969feb64}, ! Handle
  Component Data 1,                       ! Name
  {123c02d8-2cbb-4c2c-b0ef-728997e311d4}, ! UUID
  {2488aba8-dd54-48de-b10e-862b674d8048}, ! Version UUID
  1363981949,                             ! Creation Timestamp
  1363981949,                             ! Version Timestamp
  {2222c2f4-16fe-4d83-b448-294e082264f4}, ! Name of Object 1
  {9711c465-47e6-4b3d-aa5f-84657fa94aae}, ! Name of Object 2
  {268fa8bd-a5b0-4265-835a-2575af1a6e58}; ! Name of Object 3

