
OS:Version,
  {61aa8044-bdc4-41ca-8bb1-7f3d7e8eab9c}, ! Handle
  0.9.3;                                  ! Version Identifier

OS:ComponentCost:LineItem,
  {62c99be5-ac80-46a9-bb37-f8827d282413}, ! Handle
  90.1-2001 Nonres B5 Ext Slab Unheated - 4in Slab without Carpet, ! Name
  ,                                       ! Type
  Construction,                           ! Line Item Type
  90.1-2001 Nonres B5 Ext Slab Unheated - 4in Slab without Carpet, ! Item Name
  ,                                       ! Object End Use Key
  ,                                       ! Quantity {dimensionless}
  45.52,                                  ! Material Cost {$}
  CostPerArea;                            ! Material Cost Units

OS:Construction,
  {64a1d157-d042-4cac-890a-83dfe89b9bfc}, ! Handle
  90.1-2001 Nonres B5 Ext Slab Unheated - 4in Slab without Carpet, ! Name
  ,                                       ! Surface Rendering Name
  {d59f61f4-ce18-4598-a9c3-fd3e13e68078}; ! Layer 1

OS:Material,
  {d59f61f4-ce18-4598-a9c3-fd3e13e68078}, ! Handle
  MAT-CC05 4 HW CONCRETE,                 ! Name
  Rough,                                  ! Roughness
  0.1016,                                 ! Thickness {m}
  1.311,                                  ! Conductivity {W/m-K}
  2240,                                   ! Density {kg/m3}
  836.8,                                  ! Specific Heat {J/kg-K}
  0.9,                                    ! Thermal Absorptance
  0.7,                                    ! Solar Absorptance
  0.7;                                    ! Visible Absorptance

