
OS:Version,
  {9167cfe4-fa83-4f44-99e1-598b0c801494}, ! Handle
  0.9.3;                                  ! Version Identifier

OS:Construction,
  {55ea74ec-8696-4086-af28-91d44b6a9673}, ! Handle
  189.1-2009 Nonres 2A Roof Metal Building, ! Name
  ,                                       ! Surface Rendering Name
  {cd381278-d14a-41c3-a5f1-004ebb694054}, ! Layer 1
  {aa54ee35-60a7-4788-b345-0e63924ef51a}; ! Layer 2

OS:Material,
  {cd381278-d14a-41c3-a5f1-004ebb694054}, ! Handle
  Metal Roofing,                          ! Name
  MediumSmooth,                           ! Roughness
  0.001524,                               ! Thickness {m}
  45.006,                                 ! Conductivity {W/m-K}
  7680,                                   ! Density {kg/m3}
  418.4,                                  ! Specific Heat {J/kg-K}
  0.9,                                    ! Thermal Absorptance
  0.7,                                    ! Solar Absorptance
  0.3;                                    ! Visible Absorptance

OS:Material,
  {aa54ee35-60a7-4788-b345-0e63924ef51a}, ! Handle
  Roof Insulation [22],                   ! Name
  MediumRough,                            ! Roughness
  0.23578,                                ! Thickness {m}
  0.049,                                  ! Conductivity {W/m-K}
  265,                                    ! Density {kg/m3}
  836.8,                                  ! Specific Heat {J/kg-K}
  0.9,                                    ! Thermal Absorptance
  0.7,                                    ! Solar Absorptance
  0.7;                                    ! Visible Absorptance

OS:ComponentCost:LineItem,
  {5231fe0e-545d-41cd-b5e3-beda8d3c1911}, ! Handle
  189.1-2009 Nonres 2A Roof Metal Building, ! Name
  ,                                       ! Type
  Construction,                           ! Line Item Type
  189.1-2009 Nonres 2A Roof Metal Building, ! Item Name
  ,                                       ! Object End Use Key
  ,                                       ! Quantity {dimensionless}
  47.657,                                 ! Material Cost {$}
  CostPerArea;                            ! Material Cost Units

