
OS:Version,
  {171aec70-8ad6-44da-8ee4-a2eda75bdfa1}, ! Handle
  0.9.3;                                  ! Version Identifier

OS:Construction,
  {c773b762-5d44-41fe-9661-913a0b361827}, ! Handle
  90.1-2007 Res 5B Ext Slab Unheated - 4in Slab without Carpet, ! Name
  ,                                       ! Surface Rendering Name
  {b03cac60-b1c8-4174-9c7b-cf025f55c277}; ! Layer 1

OS:Material,
  {b03cac60-b1c8-4174-9c7b-cf025f55c277}, ! Handle
  MAT-CC05 4 HW CONCRETE,                 ! Name
  Rough,                                  ! Roughness
  0.1016,                                 ! Thickness {m}
  1.311,                                  ! Conductivity {W/m-K}
  2240,                                   ! Density {kg/m3}
  836.8,                                  ! Specific Heat {J/kg-K}
  0.9,                                    ! Thermal Absorptance
  0.7,                                    ! Solar Absorptance
  0.7;                                    ! Visible Absorptance

OS:ComponentCost:LineItem,
  {f9140733-420d-45ac-9505-901c4e98667f}, ! Handle
  90.1-2007 Res 5B Ext Slab Unheated - 4in Slab without Carpet, ! Name
  ,                                       ! Type
  Construction,                           ! Line Item Type
  90.1-2007 Res 5B Ext Slab Unheated - 4in Slab without Carpet, ! Item Name
  ,                                       ! Object End Use Key
  ,                                       ! Quantity {dimensionless}
  45.52,                                  ! Material Cost {$}
  CostPerArea;                            ! Material Cost Units

