
OS:Version,
  {2c33f29a-4495-464b-b5e7-e175d67fe3ab}, ! Handle
  0.9.3;                                  ! Version Identifier

OS:Material,
  {f32a9b68-12c5-4682-9510-bff19492b6a6}, ! Handle
  Wood Siding,                            ! Name
  MediumSmooth,                           ! Roughness
  0.01,                                   ! Thickness {m}
  0.11,                                   ! Conductivity {W/m-K}
  544.62,                                 ! Density {kg/m3}
  1210,                                   ! Specific Heat {J/kg-K}
  0.9,                                    ! Thermal Absorptance
  0.78,                                   ! Solar Absorptance
  0.78;                                   ! Visible Absorptance

OS:Construction,
  {6ad48044-4acc-4646-9170-f8221741cd69}, ! Handle
  90.1-1999 Res B16 Ext Wall Wood-Framed and Other, ! Name
  ,                                       ! Surface Rendering Name
  {f32a9b68-12c5-4682-9510-bff19492b6a6}, ! Layer 1
  {607f5da3-54c6-47dc-b74f-d71ba0633e96}, ! Layer 2
  {6b6afd9c-9bd8-4459-98d8-9fba6d1975b2}; ! Layer 3

OS:Material,
  {607f5da3-54c6-47dc-b74f-d71ba0633e96}, ! Handle
  Wall Insulation [11],                   ! Name
  MediumRough,                            ! Roughness
  0.109279,                               ! Thickness {m}
  0.045,                                  ! Conductivity {W/m-K}
  265,                                    ! Density {kg/m3}
  836.8,                                  ! Specific Heat {J/kg-K}
  0.9,                                    ! Thermal Absorptance
  0.7,                                    ! Solar Absorptance
  0.7;                                    ! Visible Absorptance

OS:Material,
  {6b6afd9c-9bd8-4459-98d8-9fba6d1975b2}, ! Handle
  1/2IN Gypsum,                           ! Name
  Smooth,                                 ! Roughness
  0.01271,                                ! Thickness {m}
  0.16,                                   ! Conductivity {W/m-K}
  784.9,                                  ! Density {kg/m3}
  830,                                    ! Specific Heat {J/kg-K}
  0.9,                                    ! Thermal Absorptance
  0.92,                                   ! Solar Absorptance
  0.92;                                   ! Visible Absorptance

OS:ComponentCost:LineItem,
  {208596e4-942d-472b-b54a-9f8fddc1654d}, ! Handle
  90.1-1999 Res B16 Ext Wall Wood-Framed and Other, ! Name
  ,                                       ! Type
  Construction,                           ! Line Item Type
  90.1-1999 Res B16 Ext Wall Wood-Framed and Other, ! Item Name
  ,                                       ! Object End Use Key
  ,                                       ! Quantity {dimensionless}
  77.608,                                 ! Material Cost {$}
  CostPerArea;                            ! Material Cost Units

