
OS:Version,
  {fc68b58b-fdfa-4589-884e-d334776b7978}, ! Handle
  0.9.3;                                  ! Version Identifier

OS:Material,
  {8f5d75ff-5441-4387-ada7-07db7ea0d753}, ! Handle
  Roof Insulation [1],                    ! Name
  MediumRough,                            ! Roughness
  0.123533,                               ! Thickness {m}
  0.049,                                  ! Conductivity {W/m-K}
  265,                                    ! Density {kg/m3}
  836.8,                                  ! Specific Heat {J/kg-K}
  0.9,                                    ! Thermal Absorptance
  0.7,                                    ! Solar Absorptance
  0.7;                                    ! Visible Absorptance

OS:Material,
  {db769568-1b4f-425a-9a5f-c2b3c12a1a20}, ! Handle
  Metal Roofing,                          ! Name
  MediumSmooth,                           ! Roughness
  0.001524,                               ! Thickness {m}
  45.006,                                 ! Conductivity {W/m-K}
  7680,                                   ! Density {kg/m3}
  418.4,                                  ! Specific Heat {J/kg-K}
  0.9,                                    ! Thermal Absorptance
  0.7,                                    ! Solar Absorptance
  0.3;                                    ! Visible Absorptance

OS:ComponentCost:LineItem,
  {85222d17-d405-4c57-9c82-4de517ee9520}, ! Handle
  90.1-1999 Res B16 Roof Metal Building,  ! Name
  ,                                       ! Type
  Construction,                           ! Line Item Type
  90.1-1999 Res B16 Roof Metal Building,  ! Item Name
  ,                                       ! Object End Use Key
  ,                                       ! Quantity {dimensionless}
  38.206,                                 ! Material Cost {$}
  CostPerArea;                            ! Material Cost Units

OS:Construction,
  {5646ee7e-7e15-4f4e-961c-f378037a772e}, ! Handle
  90.1-1999 Res B16 Roof Metal Building,  ! Name
  ,                                       ! Surface Rendering Name
  {db769568-1b4f-425a-9a5f-c2b3c12a1a20}, ! Layer 1
  {8f5d75ff-5441-4387-ada7-07db7ea0d753}; ! Layer 2

