
OS:Version,
  {3346c30e-20af-4eda-9d8b-3244a002bca7}, ! Handle
  0.9.3;                                  ! Version Identifier

OS:Construction,
  {1b7b5cb0-27bd-4d88-a243-df94a0cc9d88}, ! Handle
  90.1-1999 Res B16 Roof Metal Building,  ! Name
  ,                                       ! Surface Rendering Name
  {0699d756-5d2d-4dd7-a626-dc54f0c69f40}, ! Layer 1
  {386c47f5-396e-4627-930c-bc4c1a963157}; ! Layer 2

OS:Material,
  {0699d756-5d2d-4dd7-a626-dc54f0c69f40}, ! Handle
  Metal Roofing,                          ! Name
  MediumSmooth,                           ! Roughness
  0.001524,                               ! Thickness {m}
  45.006,                                 ! Conductivity {W/m-K}
  7680,                                   ! Density {kg/m3}
  418.4,                                  ! Specific Heat {J/kg-K}
  0.9,                                    ! Thermal Absorptance
  0.7,                                    ! Solar Absorptance
  0.3;                                    ! Visible Absorptance

OS:Material,
  {386c47f5-396e-4627-930c-bc4c1a963157}, ! Handle
  Roof Insulation [1],                    ! Name
  MediumRough,                            ! Roughness
  0.123533,                               ! Thickness {m}
  0.049,                                  ! Conductivity {W/m-K}
  265,                                    ! Density {kg/m3}
  836.8,                                  ! Specific Heat {J/kg-K}
  0.9,                                    ! Thermal Absorptance
  0.7,                                    ! Solar Absorptance
  0.7;                                    ! Visible Absorptance

OS:ComponentCost:LineItem,
  {44bb7e2b-aa90-4c9d-b05d-cb7f7cf470c7}, ! Handle
  90.1-1999 Res B16 Roof Metal Building,  ! Name
  ,                                       ! Type
  Construction,                           ! Line Item Type
  90.1-1999 Res B16 Roof Metal Building,  ! Item Name
  ,                                       ! Object End Use Key
  ,                                       ! Quantity {dimensionless}
  38.206,                                 ! Material Cost {$}
  CostPerArea;                            ! Material Cost Units

OS:ComponentData,
  {c4f31256-26d9-4c32-9f34-84adf9798fbe}, ! Handle
  Component Data 1,                       ! Name
  {18ff77ef-2162-4a76-a519-b2c4b214cc14}, ! UUID
  {13f29e4d-cf1c-49c2-89e7-2439dbf0f2cc}, ! Version UUID
  1363981232,                             ! Creation Timestamp
  1363981232,                             ! Version Timestamp
  {1b7b5cb0-27bd-4d88-a243-df94a0cc9d88}, ! Name of Object 1
  {0699d756-5d2d-4dd7-a626-dc54f0c69f40}, ! Name of Object 2
  {386c47f5-396e-4627-930c-bc4c1a963157}, ! Name of Object 3
  {44bb7e2b-aa90-4c9d-b05d-cb7f7cf470c7}; ! Name of Object 4

