
OS:Version,
  {5749dcde-e6a2-48ef-a277-f489d3f46b43}, ! Handle
  0.9.3;                                  ! Version Identifier

OS:WindowMaterial:Glazing,
  {d7580243-bb14-4f81-a869-ed0fcbfce21e}, ! Handle
  Theoretical Glass [172],                ! Name
  SpectralAverage,                        ! Optical Data Type
  ,                                       ! Window Glass Spectral Data Set Name
  0.003,                                  ! Thickness {m}
  0.238593,                               ! Solar Transmittance at Normal Incidence
  0.711407,                               ! Front Side Solar Reflectance at Normal Incidence
  0.711407,                               ! Back Side Solar Reflectance at Normal Incidence
  0.251212,                               ! Visible Transmittance at Normal Incidence
  0.698788,                               ! Front Side Visible Reflectance at Normal Incidence
  0.698788,                               ! Back Side Visible Reflectance at Normal Incidence
  0,                                      ! Infrared Transmittance at Normal Incidence
  0.93,                                   ! Front Side Infrared Hemispherical Emissivity
  0.93,                                   ! Back Side Infrared Hemispherical Emissivity
  0.288556;                               ! Conductivity {W/m-K}

OS:ComponentCost:LineItem,
  {7e00169b-c6c0-407b-9b7d-e660556e88c3}, ! Handle
  189.1-2009 Res 2A Window Metal framing entrance door, ! Name
  ,                                       ! Type
  Construction,                           ! Line Item Type
  189.1-2009 Res 2A Window Metal framing entrance door, ! Item Name
  ,                                       ! Object End Use Key
  ,                                       ! Quantity {dimensionless}
  600.037,                                ! Material Cost {$}
  CostPerArea;                            ! Material Cost Units

OS:Construction,
  {1888fc53-bb42-45a9-9343-9d649b913b6f}, ! Handle
  189.1-2009 Res 2A Window Metal framing entrance door, ! Name
  ,                                       ! Surface Rendering Name
  {d7580243-bb14-4f81-a869-ed0fcbfce21e}; ! Layer 1

