
OS:Version,
  {82f3002f-db97-4f0b-83d5-ce9cc314e735}, ! Handle
  0.9.3;                                  ! Version Identifier

OS:Construction,
  {37d0c9c9-77e6-4dc4-9bc2-716d4b9cf1ea}, ! Handle
  90.1-2001 Res B4 Ext Wall Wood-Framed and Other, ! Name
  ,                                       ! Surface Rendering Name
  {386d44e1-55ef-449d-a2c4-aa19c748d4d3}, ! Layer 1
  {f727b26f-6726-456f-8ec4-3305b353e5c6}, ! Layer 2
  {f8abecb9-d36d-4b96-a13c-091a6e7af020}; ! Layer 3

OS:Material,
  {386d44e1-55ef-449d-a2c4-aa19c748d4d3}, ! Handle
  Wood Siding,                            ! Name
  MediumSmooth,                           ! Roughness
  0.01,                                   ! Thickness {m}
  0.11,                                   ! Conductivity {W/m-K}
  544.62,                                 ! Density {kg/m3}
  1210,                                   ! Specific Heat {J/kg-K}
  0.9,                                    ! Thermal Absorptance
  0.78,                                   ! Solar Absorptance
  0.78;                                   ! Visible Absorptance

OS:Material,
  {f727b26f-6726-456f-8ec4-3305b353e5c6}, ! Handle
  Wall Insulation [2],                    ! Name
  MediumRough,                            ! Roughness
  0.0746874,                              ! Thickness {m}
  0.045,                                  ! Conductivity {W/m-K}
  265,                                    ! Density {kg/m3}
  836.8,                                  ! Specific Heat {J/kg-K}
  0.9,                                    ! Thermal Absorptance
  0.7,                                    ! Solar Absorptance
  0.7;                                    ! Visible Absorptance

OS:Material,
  {f8abecb9-d36d-4b96-a13c-091a6e7af020}, ! Handle
  1/2IN Gypsum,                           ! Name
  Smooth,                                 ! Roughness
  0.01271,                                ! Thickness {m}
  0.16,                                   ! Conductivity {W/m-K}
  784.9,                                  ! Density {kg/m3}
  830,                                    ! Specific Heat {J/kg-K}
  0.9,                                    ! Thermal Absorptance
  0.92,                                   ! Solar Absorptance
  0.92;                                   ! Visible Absorptance

OS:ComponentCost:LineItem,
  {6713c23f-5819-434c-bbd9-2c18b6a3349f}, ! Handle
  90.1-2001 Res B4 Ext Wall Wood-Framed and Other, ! Name
  ,                                       ! Type
  Construction,                           ! Line Item Type
  90.1-2001 Res B4 Ext Wall Wood-Framed and Other, ! Item Name
  ,                                       ! Object End Use Key
  ,                                       ! Quantity {dimensionless}
  73.056,                                 ! Material Cost {$}
  CostPerArea;                            ! Material Cost Units

