
OS:Version,
  {0b6d3119-4bbb-48ab-b135-1306066fda33}, ! Handle
  0.9.3;                                  ! Version Identifier

OS:Material,
  {04f806d2-2f2d-4072-9272-b1a2909d4747}, ! Handle
  MAT-CC05 8 HW CONCRETE,                 ! Name
  Rough,                                  ! Roughness
  0.20321,                                ! Thickness {m}
  1.311,                                  ! Conductivity {W/m-K}
  2240,                                   ! Density {kg/m3}
  836.8,                                  ! Specific Heat {J/kg-K}
  0.9,                                    ! Thermal Absorptance
  0.7,                                    ! Solar Absorptance
  0.7;                                    ! Visible Absorptance

OS:Construction,
  {e6444a52-497b-4cf7-8974-608441bb5156}, ! Handle
  AEDG-SmOffice 7A Ext Slab Unheated - 8in Slab without Carpet, ! Name
  ,                                       ! Surface Rendering Name
  {04f806d2-2f2d-4072-9272-b1a2909d4747}; ! Layer 1

OS:ComponentCost:LineItem,
  {f696030c-8f6f-43dd-97b0-4cf6d398dd87}, ! Handle
  AEDG-SmOffice 7A Ext Slab Unheated - 8in Slab without Carpet, ! Name
  ,                                       ! Type
  Construction,                           ! Line Item Type
  AEDG-SmOffice 7A Ext Slab Unheated - 8in Slab without Carpet, ! Item Name
  ,                                       ! Object End Use Key
  ,                                       ! Quantity {dimensionless}
  45.52,                                  ! Material Cost {$}
  CostPerArea;                            ! Material Cost Units

