
OS:Version,
  {9d2931dd-f8cb-4d05-98b5-14630bb6834b}, ! Handle
  0.9.3;                                  ! Version Identifier

OS:Construction,
  {d1c26c23-bd0a-404c-b67c-db93dd76d957}, ! Handle
  AEDG-SmOffice 7A Ext Slab Unheated - 8in Slab without Carpet, ! Name
  ,                                       ! Surface Rendering Name
  {b538c4a2-5911-4d4e-b6ad-ffc8c6b75edc}; ! Layer 1

OS:Material,
  {b538c4a2-5911-4d4e-b6ad-ffc8c6b75edc}, ! Handle
  MAT-CC05 8 HW CONCRETE,                 ! Name
  Rough,                                  ! Roughness
  0.20321,                                ! Thickness {m}
  1.311,                                  ! Conductivity {W/m-K}
  2240,                                   ! Density {kg/m3}
  836.8,                                  ! Specific Heat {J/kg-K}
  0.9,                                    ! Thermal Absorptance
  0.7,                                    ! Solar Absorptance
  0.7;                                    ! Visible Absorptance

OS:ComponentCost:LineItem,
  {5ddc74e7-e3be-4cb7-9e8d-00d9a53e648d}, ! Handle
  AEDG-SmOffice 7A Ext Slab Unheated - 8in Slab without Carpet, ! Name
  ,                                       ! Type
  Construction,                           ! Line Item Type
  AEDG-SmOffice 7A Ext Slab Unheated - 8in Slab without Carpet, ! Item Name
  ,                                       ! Object End Use Key
  ,                                       ! Quantity {dimensionless}
  45.52,                                  ! Material Cost {$}
  CostPerArea;                            ! Material Cost Units

OS:ComponentData,
  {f2950c58-7b4b-41e7-a630-f6b02823e796}, ! Handle
  Component Data 1,                       ! Name
  {d61d75f5-6d18-4feb-a88d-749f33b212b6}, ! UUID
  {88068e78-839a-495a-8f0c-f24bb1274376}, ! Version UUID
  1363981965,                             ! Creation Timestamp
  1363981965,                             ! Version Timestamp
  {d1c26c23-bd0a-404c-b67c-db93dd76d957}, ! Name of Object 1
  {b538c4a2-5911-4d4e-b6ad-ffc8c6b75edc}, ! Name of Object 2
  {5ddc74e7-e3be-4cb7-9e8d-00d9a53e648d}; ! Name of Object 3

