
OS:Version,
  {35868572-497b-4f03-96e9-40ae2d47138c}, ! Handle
  0.9.3;                                  ! Version Identifier

OS:ComponentCost:LineItem,
  {11fc0c97-4f1c-4a6c-a1f5-e708a7dd9a2b}, ! Handle
  AEDG-SmOffice 1A Ext Slab Unheated - 8in Slab with Carpet, ! Name
  ,                                       ! Type
  Construction,                           ! Line Item Type
  AEDG-SmOffice 1A Ext Slab Unheated - 8in Slab with Carpet, ! Item Name
  ,                                       ! Object End Use Key
  ,                                       ! Quantity {dimensionless}
  45.52,                                  ! Material Cost {$}
  CostPerArea;                            ! Material Cost Units

OS:Material,
  {c1cf18b1-ad6f-4bf4-a8e1-faa034fe4b6a}, ! Handle
  MAT-CC05 8 HW CONCRETE,                 ! Name
  Rough,                                  ! Roughness
  0.20321,                                ! Thickness {m}
  1.311,                                  ! Conductivity {W/m-K}
  2240,                                   ! Density {kg/m3}
  836.8,                                  ! Specific Heat {J/kg-K}
  0.9,                                    ! Thermal Absorptance
  0.7,                                    ! Solar Absorptance
  0.7;                                    ! Visible Absorptance

OS:Material:NoMass,
  {58e432c6-e6b2-49fb-a87a-fc9f8c46eed1}, ! Handle
  CP02 CARPET PAD,                        ! Name
  VeryRough,                              ! Roughness
  0.21648,                                ! Thermal Resistance {m2-K/W}
  0.9,                                    ! Thermal Absorptance
  0.7,                                    ! Solar Absorptance
  0.8;                                    ! Visible Absorptance

OS:Construction,
  {55f75800-2440-441b-b1f0-094dfed85209}, ! Handle
  AEDG-SmOffice 1A Ext Slab Unheated - 8in Slab with Carpet, ! Name
  ,                                       ! Surface Rendering Name
  {c1cf18b1-ad6f-4bf4-a8e1-faa034fe4b6a}, ! Layer 1
  {58e432c6-e6b2-49fb-a87a-fc9f8c46eed1}; ! Layer 2

