
OS:Version,
  {98a18fbe-c50a-435f-90fe-7c0b7608c496}, ! Handle
  0.9.3;                                  ! Version Identifier

OS:Construction,
  {ce73d642-3ced-4083-b2ea-0577271b0b70}, ! Handle
  AEDG-SmOffice 1A Ext Slab Unheated - 8in Slab with Carpet, ! Name
  ,                                       ! Surface Rendering Name
  {05f22cdd-219c-474a-9c0a-473f72ab4aff}, ! Layer 1
  {3956cdca-8b7b-4d48-9596-b1a1719993b8}; ! Layer 2

OS:Material,
  {05f22cdd-219c-474a-9c0a-473f72ab4aff}, ! Handle
  MAT-CC05 8 HW CONCRETE,                 ! Name
  Rough,                                  ! Roughness
  0.20321,                                ! Thickness {m}
  1.311,                                  ! Conductivity {W/m-K}
  2240,                                   ! Density {kg/m3}
  836.8,                                  ! Specific Heat {J/kg-K}
  0.9,                                    ! Thermal Absorptance
  0.7,                                    ! Solar Absorptance
  0.7;                                    ! Visible Absorptance

OS:Material:NoMass,
  {3956cdca-8b7b-4d48-9596-b1a1719993b8}, ! Handle
  CP02 CARPET PAD,                        ! Name
  VeryRough,                              ! Roughness
  0.21648,                                ! Thermal Resistance {m2-K/W}
  0.9,                                    ! Thermal Absorptance
  0.7,                                    ! Solar Absorptance
  0.8;                                    ! Visible Absorptance

OS:ComponentCost:LineItem,
  {a05ccf72-cd14-42ba-9356-ee87962b5af5}, ! Handle
  AEDG-SmOffice 1A Ext Slab Unheated - 8in Slab with Carpet, ! Name
  ,                                       ! Type
  Construction,                           ! Line Item Type
  AEDG-SmOffice 1A Ext Slab Unheated - 8in Slab with Carpet, ! Item Name
  ,                                       ! Object End Use Key
  ,                                       ! Quantity {dimensionless}
  45.52,                                  ! Material Cost {$}
  CostPerArea;                            ! Material Cost Units

OS:ComponentData,
  {bef3a8bf-c622-4035-9961-6c7973d89dba}, ! Handle
  Component Data 1,                       ! Name
  {6aa4e26d-9367-45e1-817e-046f270b323a}, ! UUID
  {7605f22f-d4c8-4afb-b997-72f80f6962c0}, ! Version UUID
  1363981939,                             ! Creation Timestamp
  1363981939,                             ! Version Timestamp
  {ce73d642-3ced-4083-b2ea-0577271b0b70}, ! Name of Object 1
  {05f22cdd-219c-474a-9c0a-473f72ab4aff}, ! Name of Object 2
  {3956cdca-8b7b-4d48-9596-b1a1719993b8}, ! Name of Object 3
  {a05ccf72-cd14-42ba-9356-ee87962b5af5}; ! Name of Object 4

