
OS:Version,
  {0a1463cd-4f1a-4d89-9207-49f9ec76189c}, ! Handle
  0.9.3;                                  ! Version Identifier

OS:ComponentCost:LineItem,
  {51c9a91d-0af0-4a94-8e0a-fb3f1406312e}, ! Handle
  90.1-2004 Nonres 7A Ext Wall Steel-Framed, ! Name
  ,                                       ! Type
  Construction,                           ! Line Item Type
  90.1-2004 Nonres 7A Ext Wall Steel-Framed, ! Item Name
  ,                                       ! Object End Use Key
  ,                                       ! Quantity {dimensionless}
  94.657,                                 ! Material Cost {$}
  CostPerArea;                            ! Material Cost Units

OS:Construction,
  {90b7ed48-0b9c-461f-b2ce-8d9134ef5603}, ! Handle
  90.1-2004 Nonres 7A Ext Wall Steel-Framed, ! Name
  ,                                       ! Surface Rendering Name
  {e49c95d5-4d2e-49bd-8afc-652c3c8f7da9}, ! Layer 1
  {356ef203-9407-4965-ac63-5d8cbcdba98c}, ! Layer 2
  {6df25f4b-2182-4afd-becf-ee978911a172}; ! Layer 3

OS:Material:NoMass,
  {e49c95d5-4d2e-49bd-8afc-652c3c8f7da9}, ! Handle
  MAT-SHEATH,                             ! Name
  Rough,                                  ! Roughness
  0.36256,                                ! Thermal Resistance {m2-K/W}
  0.9,                                    ! Thermal Absorptance
  0.7,                                    ! Solar Absorptance
  0.7;                                    ! Visible Absorptance

OS:Material,
  {356ef203-9407-4965-ac63-5d8cbcdba98c}, ! Handle
  Wall Insulation [10],                   ! Name
  MediumRough,                            ! Roughness
  0.0971136,                              ! Thickness {m}
  0.045,                                  ! Conductivity {W/m-K}
  265,                                    ! Density {kg/m3}
  836.8,                                  ! Specific Heat {J/kg-K}
  0.9,                                    ! Thermal Absorptance
  0.7,                                    ! Solar Absorptance
  0.7;                                    ! Visible Absorptance

OS:Material,
  {6df25f4b-2182-4afd-becf-ee978911a172}, ! Handle
  1/2IN Gypsum,                           ! Name
  Smooth,                                 ! Roughness
  0.01271,                                ! Thickness {m}
  0.16,                                   ! Conductivity {W/m-K}
  784.9,                                  ! Density {kg/m3}
  830,                                    ! Specific Heat {J/kg-K}
  0.9,                                    ! Thermal Absorptance
  0.92,                                   ! Solar Absorptance
  0.92;                                   ! Visible Absorptance

