
OS:Version,
  {f2720ad1-e670-47e6-9d13-1f6885972f48}, ! Handle
  0.9.3;                                  ! Version Identifier

OS:ComponentCost:LineItem,
  {f3cf32e0-bec9-455e-9f0f-7db4673d7559}, ! Handle
  Title 24-2008 Nonres 8 Ext Slab Unheated - 4in Slab without Carpet, ! Name
  ,                                       ! Type
  Construction,                           ! Line Item Type
  Title 24-2008 Nonres 8 Ext Slab Unheated - 4in Slab without Carpet, ! Item Name
  ,                                       ! Object End Use Key
  ,                                       ! Quantity {dimensionless}
  45.52,                                  ! Material Cost {$}
  CostPerArea;                            ! Material Cost Units

OS:Construction,
  {d2d630ab-e696-4a91-b9e5-f47942a6a7f9}, ! Handle
  Title 24-2008 Nonres 8 Ext Slab Unheated - 4in Slab without Carpet, ! Name
  ,                                       ! Surface Rendering Name
  {3fd33a1b-09f6-4dfa-8e87-75bef72e348f}; ! Layer 1

OS:Material,
  {3fd33a1b-09f6-4dfa-8e87-75bef72e348f}, ! Handle
  MAT-CC05 4 HW CONCRETE,                 ! Name
  Rough,                                  ! Roughness
  0.1016,                                 ! Thickness {m}
  1.311,                                  ! Conductivity {W/m-K}
  2240,                                   ! Density {kg/m3}
  836.8,                                  ! Specific Heat {J/kg-K}
  0.9,                                    ! Thermal Absorptance
  0.7,                                    ! Solar Absorptance
  0.7;                                    ! Visible Absorptance

