
OS:Version,
  {1d98961b-831b-42e3-aed4-c8c7433a514c}, ! Handle
  0.9.3;                                  ! Version Identifier

OS:Construction,
  {a276cc14-a256-4ed4-83e5-20c307bc9f5e}, ! Handle
  Title 24-2008 Nonres 8 Ext Slab Unheated - 4in Slab without Carpet, ! Name
  ,                                       ! Surface Rendering Name
  {7a359293-c246-4c73-a7cb-2e575dcd16f2}; ! Layer 1

OS:Material,
  {7a359293-c246-4c73-a7cb-2e575dcd16f2}, ! Handle
  MAT-CC05 4 HW CONCRETE,                 ! Name
  Rough,                                  ! Roughness
  0.1016,                                 ! Thickness {m}
  1.311,                                  ! Conductivity {W/m-K}
  2240,                                   ! Density {kg/m3}
  836.8,                                  ! Specific Heat {J/kg-K}
  0.9,                                    ! Thermal Absorptance
  0.7,                                    ! Solar Absorptance
  0.7;                                    ! Visible Absorptance

OS:ComponentCost:LineItem,
  {b3e2555d-24e3-49e6-a253-8887eb223614}, ! Handle
  Title 24-2008 Nonres 8 Ext Slab Unheated - 4in Slab without Carpet, ! Name
  ,                                       ! Type
  Construction,                           ! Line Item Type
  Title 24-2008 Nonres 8 Ext Slab Unheated - 4in Slab without Carpet, ! Item Name
  ,                                       ! Object End Use Key
  ,                                       ! Quantity {dimensionless}
  45.52,                                  ! Material Cost {$}
  CostPerArea;                            ! Material Cost Units

OS:ComponentData,
  {cc549e84-820f-4e0c-a8df-5a2f17a10c66}, ! Handle
  Component Data 1,                       ! Name
  {5d496954-e94f-42af-b0ac-6128e6ad25d0}, ! UUID
  {9d1be93c-acf3-456c-a262-12f61cbd7369}, ! Version UUID
  1363982047,                             ! Creation Timestamp
  1363982047,                             ! Version Timestamp
  {a276cc14-a256-4ed4-83e5-20c307bc9f5e}, ! Name of Object 1
  {7a359293-c246-4c73-a7cb-2e575dcd16f2}, ! Name of Object 2
  {b3e2555d-24e3-49e6-a253-8887eb223614}; ! Name of Object 3

