
OS:Version,
  {cd512199-bf87-4fd7-b400-cfa4db1fd902}, ! Handle
  0.9.3;                                  ! Version Identifier

OS:Material,
  {f72697e2-a9c9-4ffa-9c94-592b67482455}, ! Handle
  Wall Insulation [6],                    ! Name
  MediumRough,                            ! Roughness
  0.0678449,                              ! Thickness {m}
  0.045,                                  ! Conductivity {W/m-K}
  265,                                    ! Density {kg/m3}
  836.8,                                  ! Specific Heat {J/kg-K}
  0.9,                                    ! Thermal Absorptance
  0.7,                                    ! Solar Absorptance
  0.7;                                    ! Visible Absorptance

OS:Material:NoMass,
  {2860ca8e-36c2-4f89-ae61-104df8996fdc}, ! Handle
  MAT-SHEATH,                             ! Name
  Rough,                                  ! Roughness
  0.36256,                                ! Thermal Resistance {m2-K/W}
  0.9,                                    ! Thermal Absorptance
  0.7,                                    ! Solar Absorptance
  0.7;                                    ! Visible Absorptance

OS:Construction,
  {5d91b1e5-255f-4ba7-ab81-f42ba1123712}, ! Handle
  90.1-2004 Res 3A Ext Wall Steel-Framed, ! Name
  ,                                       ! Surface Rendering Name
  {2860ca8e-36c2-4f89-ae61-104df8996fdc}, ! Layer 1
  {f72697e2-a9c9-4ffa-9c94-592b67482455}, ! Layer 2
  {fd1b3770-6a12-45ec-9b26-a9ef0401bcd6}; ! Layer 3

OS:Material,
  {fd1b3770-6a12-45ec-9b26-a9ef0401bcd6}, ! Handle
  1/2IN Gypsum,                           ! Name
  Smooth,                                 ! Roughness
  0.01271,                                ! Thickness {m}
  0.16,                                   ! Conductivity {W/m-K}
  784.9,                                  ! Density {kg/m3}
  830,                                    ! Specific Heat {J/kg-K}
  0.9,                                    ! Thermal Absorptance
  0.92,                                   ! Solar Absorptance
  0.92;                                   ! Visible Absorptance

OS:ComponentCost:LineItem,
  {5bcb91c7-25f3-444c-bdb4-bee5e3df2e4c}, ! Handle
  90.1-2004 Res 3A Ext Wall Steel-Framed, ! Name
  ,                                       ! Type
  Construction,                           ! Line Item Type
  90.1-2004 Res 3A Ext Wall Steel-Framed, ! Item Name
  ,                                       ! Object End Use Key
  ,                                       ! Quantity {dimensionless}
  91.749,                                 ! Material Cost {$}
  CostPerArea;                            ! Material Cost Units

