
OS:Version,
  {e76d8d89-ee16-4a2b-b3a5-4b3cee8798ee}, ! Handle
  0.9.3;                                  ! Version Identifier

OS:ComponentCost:LineItem,
  {4889cf47-2749-452e-93ce-e8ec6bd9127b}, ! Handle
  90.1-1999 Res B5 Roof Metal Building,   ! Name
  ,                                       ! Type
  Construction,                           ! Line Item Type
  90.1-1999 Res B5 Roof Metal Building,   ! Item Name
  ,                                       ! Object End Use Key
  ,                                       ! Quantity {dimensionless}
  38.206,                                 ! Material Cost {$}
  CostPerArea;                            ! Material Cost Units

OS:Material,
  {1becc819-c5ff-49f1-a85d-385956ec05a0}, ! Handle
  Roof Insulation [1],                    ! Name
  MediumRough,                            ! Roughness
  0.123533,                               ! Thickness {m}
  0.049,                                  ! Conductivity {W/m-K}
  265,                                    ! Density {kg/m3}
  836.8,                                  ! Specific Heat {J/kg-K}
  0.9,                                    ! Thermal Absorptance
  0.7,                                    ! Solar Absorptance
  0.7;                                    ! Visible Absorptance

OS:Material,
  {181f93b1-c5e9-4761-82a4-b0cf686107a3}, ! Handle
  Metal Roofing,                          ! Name
  MediumSmooth,                           ! Roughness
  0.001524,                               ! Thickness {m}
  45.006,                                 ! Conductivity {W/m-K}
  7680,                                   ! Density {kg/m3}
  418.4,                                  ! Specific Heat {J/kg-K}
  0.9,                                    ! Thermal Absorptance
  0.7,                                    ! Solar Absorptance
  0.3;                                    ! Visible Absorptance

OS:Construction,
  {264c9375-4957-4ff1-8639-02d623f333a2}, ! Handle
  90.1-1999 Res B5 Roof Metal Building,   ! Name
  ,                                       ! Surface Rendering Name
  {181f93b1-c5e9-4761-82a4-b0cf686107a3}, ! Layer 1
  {1becc819-c5ff-49f1-a85d-385956ec05a0}; ! Layer 2

