
OS:Version,
  {884a0674-f1f9-430f-9e59-6a7422a9b267}, ! Handle
  0.9.3;                                  ! Version Identifier

OS:Construction,
  {b882874f-8cdb-4c61-92dc-be30fa064ce3}, ! Handle
  90.1-1999 Res B5 Roof Metal Building,   ! Name
  ,                                       ! Surface Rendering Name
  {3f6593cb-0452-4d2b-9e06-d0d57c86d1d3}, ! Layer 1
  {f6bdd6ab-c8e8-470a-9801-9299b46c9596}; ! Layer 2

OS:Material,
  {3f6593cb-0452-4d2b-9e06-d0d57c86d1d3}, ! Handle
  Metal Roofing,                          ! Name
  MediumSmooth,                           ! Roughness
  0.001524,                               ! Thickness {m}
  45.006,                                 ! Conductivity {W/m-K}
  7680,                                   ! Density {kg/m3}
  418.4,                                  ! Specific Heat {J/kg-K}
  0.9,                                    ! Thermal Absorptance
  0.7,                                    ! Solar Absorptance
  0.3;                                    ! Visible Absorptance

OS:Material,
  {f6bdd6ab-c8e8-470a-9801-9299b46c9596}, ! Handle
  Roof Insulation [1],                    ! Name
  MediumRough,                            ! Roughness
  0.123533,                               ! Thickness {m}
  0.049,                                  ! Conductivity {W/m-K}
  265,                                    ! Density {kg/m3}
  836.8,                                  ! Specific Heat {J/kg-K}
  0.9,                                    ! Thermal Absorptance
  0.7,                                    ! Solar Absorptance
  0.7;                                    ! Visible Absorptance

OS:ComponentCost:LineItem,
  {3c84a3a6-b82b-4514-9c28-dd8c83fdbfb2}, ! Handle
  90.1-1999 Res B5 Roof Metal Building,   ! Name
  ,                                       ! Type
  Construction,                           ! Line Item Type
  90.1-1999 Res B5 Roof Metal Building,   ! Item Name
  ,                                       ! Object End Use Key
  ,                                       ! Quantity {dimensionless}
  38.206,                                 ! Material Cost {$}
  CostPerArea;                            ! Material Cost Units

OS:ComponentData,
  {69580f9b-2b59-4acd-9a59-13ad61559d71}, ! Handle
  Component Data 1,                       ! Name
  {e26b49ea-cff9-424a-b064-1d20de947738}, ! UUID
  {591f3ffe-09b1-4852-a5ee-c7032dd6f87d}, ! Version UUID
  1363981181,                             ! Creation Timestamp
  1363981181,                             ! Version Timestamp
  {b882874f-8cdb-4c61-92dc-be30fa064ce3}, ! Name of Object 1
  {3f6593cb-0452-4d2b-9e06-d0d57c86d1d3}, ! Name of Object 2
  {f6bdd6ab-c8e8-470a-9801-9299b46c9596}, ! Name of Object 3
  {3c84a3a6-b82b-4514-9c28-dd8c83fdbfb2}; ! Name of Object 4

