
OS:Version,
  {5f7f4664-4daa-4b52-b422-b36cbbadce2f}, ! Handle
  0.9.3;                                  ! Version Identifier

OS:Material,
  {a275a21a-afa6-4b88-8ddd-a0580ca68810}, ! Handle
  Metal Decking,                          ! Name
  MediumSmooth,                           ! Roughness
  0.001524,                               ! Thickness {m}
  45.006,                                 ! Conductivity {W/m-K}
  7680,                                   ! Density {kg/m3}
  418.4,                                  ! Specific Heat {J/kg-K}
  0.9,                                    ! Thermal Absorptance
  0.7,                                    ! Solar Absorptance
  0.3;                                    ! Visible Absorptance

OS:Material,
  {4370bea6-dd03-4595-af28-bc0500838fd9}, ! Handle
  Roof Membrane [2],                      ! Name
  VeryRough,                              ! Roughness
  0.0095,                                 ! Thickness {m}
  0.16,                                   ! Conductivity {W/m-K}
  1121.29,                                ! Density {kg/m3}
  1460,                                   ! Specific Heat {J/kg-K}
  0.9,                                    ! Thermal Absorptance
  0.7,                                    ! Solar Absorptance
  0.85;                                   ! Visible Absorptance

OS:Material,
  {fed78611-ab3e-48cb-b0e5-b19e920f1924}, ! Handle
  Roof Insulation [31],                   ! Name
  MediumRough,                            ! Roughness
  0.209546,                               ! Thickness {m}
  0.049,                                  ! Conductivity {W/m-K}
  265,                                    ! Density {kg/m3}
  836.8,                                  ! Specific Heat {J/kg-K}
  0.9,                                    ! Thermal Absorptance
  0.7,                                    ! Solar Absorptance
  0.7;                                    ! Visible Absorptance

OS:ComponentCost:LineItem,
  {f33f8adc-4a49-44bc-9b32-a2f7886d1981}, ! Handle
  Title 24-2008 Nonres 15 Roof IEAD,      ! Name
  ,                                       ! Type
  Construction,                           ! Line Item Type
  Title 24-2008 Nonres 15 Roof IEAD,      ! Item Name
  ,                                       ! Object End Use Key
  ,                                       ! Quantity {dimensionless}
  56.579,                                 ! Material Cost {$}
  CostPerArea;                            ! Material Cost Units

OS:Construction,
  {227eea24-de31-4d6b-9ef7-26d70fe4502f}, ! Handle
  Title 24-2008 Nonres 15 Roof IEAD,      ! Name
  ,                                       ! Surface Rendering Name
  {4370bea6-dd03-4595-af28-bc0500838fd9}, ! Layer 1
  {fed78611-ab3e-48cb-b0e5-b19e920f1924}, ! Layer 2
  {a275a21a-afa6-4b88-8ddd-a0580ca68810}; ! Layer 3

