
OS:Version,
  {7209882e-e030-4e27-8ea9-b6f13d962fce}, ! Handle
  0.9.3;                                  ! Version Identifier

OS:ComponentCost:LineItem,
  {e39839d4-aefb-4745-9735-5f8d3e6d89bd}, ! Handle
  90.1-2001 Res B10 Ext Wall Metal Building, ! Name
  ,                                       ! Type
  Construction,                           ! Line Item Type
  90.1-2001 Res B10 Ext Wall Metal Building, ! Item Name
  ,                                       ! Object End Use Key
  ,                                       ! Quantity {dimensionless}
  98.78,                                  ! Material Cost {$}
  CostPerArea;                            ! Material Cost Units

OS:Material,
  {ba090a73-95d6-449c-92e6-35eeb5e8c9e5}, ! Handle
  Wall Insulation,                        ! Name
  MediumRough,                            ! Roughness
  0.0598725,                              ! Thickness {m}
  0.045,                                  ! Conductivity {W/m-K}
  265,                                    ! Density {kg/m3}
  836.8,                                  ! Specific Heat {J/kg-K}
  0.9,                                    ! Thermal Absorptance
  0.7,                                    ! Solar Absorptance
  0.7;                                    ! Visible Absorptance

OS:Material,
  {99a7bad9-57a7-4bce-b3ad-97011e813bb8}, ! Handle
  Metal Siding,                           ! Name
  Smooth,                                 ! Roughness
  0.0015,                                 ! Thickness {m}
  44.96,                                  ! Conductivity {W/m-K}
  7688.86,                                ! Density {kg/m3}
  410,                                    ! Specific Heat {J/kg-K}
  0.9,                                    ! Thermal Absorptance
  0.2,                                    ! Solar Absorptance
  0.2;                                    ! Visible Absorptance

OS:Material,
  {9c56be01-84d2-403d-a92f-7391a49cf47b}, ! Handle
  1/2IN Gypsum,                           ! Name
  Smooth,                                 ! Roughness
  0.01271,                                ! Thickness {m}
  0.16,                                   ! Conductivity {W/m-K}
  784.9,                                  ! Density {kg/m3}
  830,                                    ! Specific Heat {J/kg-K}
  0.9,                                    ! Thermal Absorptance
  0.92,                                   ! Solar Absorptance
  0.92;                                   ! Visible Absorptance

OS:Construction,
  {dc8e8666-dde8-4541-9aa6-f12faadad0a6}, ! Handle
  90.1-2001 Res B10 Ext Wall Metal Building, ! Name
  ,                                       ! Surface Rendering Name
  {99a7bad9-57a7-4bce-b3ad-97011e813bb8}, ! Layer 1
  {ba090a73-95d6-449c-92e6-35eeb5e8c9e5}, ! Layer 2
  {9c56be01-84d2-403d-a92f-7391a49cf47b}; ! Layer 3

