
OS:Version,
  {e29e8957-1729-4725-b727-c81e8123d1c0}, ! Handle
  0.9.3;                                  ! Version Identifier

OS:Material,
  {c5582e8e-e5e0-4a90-a80a-c19c7e408389}, ! Handle
  MAT-CC05 8 HW CONCRETE,                 ! Name
  Rough,                                  ! Roughness
  0.20321,                                ! Thickness {m}
  1.311,                                  ! Conductivity {W/m-K}
  2240,                                   ! Density {kg/m3}
  836.8,                                  ! Specific Heat {J/kg-K}
  0.9,                                    ! Thermal Absorptance
  0.7,                                    ! Solar Absorptance
  0.7;                                    ! Visible Absorptance

OS:Material:NoMass,
  {5e5083f7-d2e8-4555-a164-e750459b081b}, ! Handle
  CP02 CARPET PAD,                        ! Name
  VeryRough,                              ! Roughness
  0.21648,                                ! Thermal Resistance {m2-K/W}
  0.9,                                    ! Thermal Absorptance
  0.7,                                    ! Solar Absorptance
  0.8;                                    ! Visible Absorptance

OS:Construction,
  {6700a37f-6f8e-4b08-977c-594c81e5a653}, ! Handle
  189.1-2009 Res 4B Ext Slab Unheated - 8in Slab with Carpet, ! Name
  ,                                       ! Surface Rendering Name
  {c5582e8e-e5e0-4a90-a80a-c19c7e408389}, ! Layer 1
  {5e5083f7-d2e8-4555-a164-e750459b081b}; ! Layer 2

OS:ComponentCost:LineItem,
  {9d3140fd-9636-4943-b3b1-090502ab8a92}, ! Handle
  189.1-2009 Res 4B Ext Slab Unheated - 8in Slab with Carpet, ! Name
  ,                                       ! Type
  Construction,                           ! Line Item Type
  189.1-2009 Res 4B Ext Slab Unheated - 8in Slab with Carpet, ! Item Name
  ,                                       ! Object End Use Key
  ,                                       ! Quantity {dimensionless}
  45.52,                                  ! Material Cost {$}
  CostPerArea;                            ! Material Cost Units

