
OS:Version,
  {4544f112-ee1c-40b2-95b7-c5ce6a3f575b}, ! Handle
  0.9.3;                                  ! Version Identifier

OS:Construction,
  {7921779d-a09c-4f13-b905-4bb26b1efac3}, ! Handle
  Title 24-2008 Nonres 11 Roof Metal Building, ! Name
  ,                                       ! Surface Rendering Name
  {23c536d4-0189-4f06-86d1-9fba82039271}, ! Layer 1
  {7db0d097-27a2-4afc-a1a7-a7c280e9d09e}; ! Layer 2

OS:Material,
  {23c536d4-0189-4f06-86d1-9fba82039271}, ! Handle
  Metal Roofing [1],                      ! Name
  MediumSmooth,                           ! Roughness
  0.001524,                               ! Thickness {m}
  45.006,                                 ! Conductivity {W/m-K}
  7680,                                   ! Density {kg/m3}
  418.4,                                  ! Specific Heat {J/kg-K}
  0.9,                                    ! Thermal Absorptance
  0.7,                                    ! Solar Absorptance
  0.85;                                   ! Visible Absorptance

OS:Material,
  {7db0d097-27a2-4afc-a1a7-a7c280e9d09e}, ! Handle
  Roof Insulation [15],                   ! Name
  MediumRough,                            ! Roughness
  0.123565,                               ! Thickness {m}
  0.049,                                  ! Conductivity {W/m-K}
  265,                                    ! Density {kg/m3}
  836.8,                                  ! Specific Heat {J/kg-K}
  0.9,                                    ! Thermal Absorptance
  0.7,                                    ! Solar Absorptance
  0.7;                                    ! Visible Absorptance

OS:ComponentCost:LineItem,
  {cd50e33d-0cf6-4553-81cd-006300472051}, ! Handle
  Title 24-2008 Nonres 11 Roof Metal Building, ! Name
  ,                                       ! Type
  Construction,                           ! Line Item Type
  Title 24-2008 Nonres 11 Roof Metal Building, ! Item Name
  ,                                       ! Object End Use Key
  ,                                       ! Quantity {dimensionless}
  38.21,                                  ! Material Cost {$}
  CostPerArea;                            ! Material Cost Units

