
OS:Version,
  {4421bc26-70a3-47b0-970f-828cdb85fb17}, ! Handle
  0.9.3;                                  ! Version Identifier

OS:Construction,
  {05c81488-0899-46ee-a035-72face1c80d3}, ! Handle
  90.1-2001 Nonres B17 Skylight without Curb, ! Name
  ,                                       ! Surface Rendering Name
  {3a90e44f-688a-426e-b349-8e4484c82fb2}; ! Layer 1

OS:WindowMaterial:Glazing,
  {3a90e44f-688a-426e-b349-8e4484c82fb2}, ! Handle
  Theoretical Glass [32],                 ! Name
  SpectralAverage,                        ! Optical Data Type
  ,                                       ! Window Glass Spectral Data Set Name
  0.003,                                  ! Thickness {m}
  0.481761,                               ! Solar Transmittance at Normal Incidence
  0.468239,                               ! Front Side Solar Reflectance at Normal Incidence
  0.468239,                               ! Back Side Solar Reflectance at Normal Incidence
  0.529698,                               ! Visible Transmittance at Normal Incidence
  0.420302,                               ! Front Side Visible Reflectance at Normal Incidence
  0.420302,                               ! Back Side Visible Reflectance at Normal Incidence
  0,                                      ! Infrared Transmittance at Normal Incidence
  0.9,                                    ! Front Side Infrared Hemispherical Emissivity
  0.9,                                    ! Back Side Infrared Hemispherical Emissivity
  0.03026;                                ! Conductivity {W/m-K}

OS:ComponentCost:LineItem,
  {521524bc-660e-48d9-ac79-f1d0bc2e3078}, ! Handle
  90.1-2001 Nonres B17 Skylight without Curb, ! Name
  ,                                       ! Type
  Construction,                           ! Line Item Type
  90.1-2001 Nonres B17 Skylight without Curb, ! Item Name
  ,                                       ! Object End Use Key
  ,                                       ! Quantity {dimensionless}
  514.818,                                ! Material Cost {$}
  CostPerArea;                            ! Material Cost Units

