
OS:Version,
  {da460bcc-e22b-4370-8a8f-9fd17b6afcbf}, ! Handle
  0.9.3;                                  ! Version Identifier

OS:WindowMaterial:Glazing,
  {849b31a7-83ba-456a-95f0-65cb3fc31e17}, ! Handle
  Theoretical Glass [209],                ! Name
  SpectralAverage,                        ! Optical Data Type
  ,                                       ! Window Glass Spectral Data Set Name
  0.003,                                  ! Thickness {m}
  0.328359,                               ! Solar Transmittance at Normal Incidence
  0.621641,                               ! Front Side Solar Reflectance at Normal Incidence
  0.621641,                               ! Back Side Solar Reflectance at Normal Incidence
  0.439975,                               ! Visible Transmittance at Normal Incidence
  0.510025,                               ! Front Side Visible Reflectance at Normal Incidence
  0.510025,                               ! Back Side Visible Reflectance at Normal Incidence
  0,                                      ! Infrared Transmittance at Normal Incidence
  0.9,                                    ! Front Side Infrared Hemispherical Emissivity
  0.9,                                    ! Back Side Infrared Hemispherical Emissivity
  0.00560984;                             ! Conductivity {W/m-K}

OS:Construction,
  {74619ed5-0877-4e5e-b17c-bce06340aefc}, ! Handle
  189.1-2009 Nonres 5B Window Nonmetal framing, ! Name
  ,                                       ! Surface Rendering Name
  {849b31a7-83ba-456a-95f0-65cb3fc31e17}; ! Layer 1

OS:ComponentCost:LineItem,
  {c695894c-0876-46fa-ab0f-632260280ede}, ! Handle
  189.1-2009 Nonres 5B Window Nonmetal framing, ! Name
  ,                                       ! Type
  Construction,                           ! Line Item Type
  189.1-2009 Nonres 5B Window Nonmetal framing, ! Item Name
  ,                                       ! Object End Use Key
  ,                                       ! Quantity {dimensionless}
  573.89,                                 ! Material Cost {$}
  CostPerArea;                            ! Material Cost Units

