
OS:Version,
  {70775018-491f-47d2-98f0-7353716de68e}, ! Handle
  0.9.3;                                  ! Version Identifier

OS:Material,
  {aafa6ae4-5439-4eec-b5cf-382011aaea27}, ! Handle
  MAT-CC05 8 HW CONCRETE,                 ! Name
  Rough,                                  ! Roughness
  0.20321,                                ! Thickness {m}
  1.311,                                  ! Conductivity {W/m-K}
  2240,                                   ! Density {kg/m3}
  836.8,                                  ! Specific Heat {J/kg-K}
  0.9,                                    ! Thermal Absorptance
  0.7,                                    ! Solar Absorptance
  0.7;                                    ! Visible Absorptance

OS:Material:NoMass,
  {38e04033-d9dc-41f4-a186-0838af52f568}, ! Handle
  CP02 CARPET PAD,                        ! Name
  VeryRough,                              ! Roughness
  0.21648,                                ! Thermal Resistance {m2-K/W}
  0.9,                                    ! Thermal Absorptance
  0.7,                                    ! Solar Absorptance
  0.8;                                    ! Visible Absorptance

OS:ComponentCost:LineItem,
  {0bd2d4be-be0d-4cde-bab4-13a287d2bb98}, ! Handle
  Title 24-2008 Nonres 12 Ext Slab Unheated - 8in Slab with Carpet, ! Name
  ,                                       ! Type
  Construction,                           ! Line Item Type
  Title 24-2008 Nonres 12 Ext Slab Unheated - 8in Slab with Carpet, ! Item Name
  ,                                       ! Object End Use Key
  ,                                       ! Quantity {dimensionless}
  45.52,                                  ! Material Cost {$}
  CostPerArea;                            ! Material Cost Units

OS:Construction,
  {56020597-6c4b-4bbd-bc15-0534708c7d4d}, ! Handle
  Title 24-2008 Nonres 12 Ext Slab Unheated - 8in Slab with Carpet, ! Name
  ,                                       ! Surface Rendering Name
  {aafa6ae4-5439-4eec-b5cf-382011aaea27}, ! Layer 1
  {38e04033-d9dc-41f4-a186-0838af52f568}; ! Layer 2

