
OS:Version,
  {37c08116-b05e-42e6-844c-c3787a91a8f2}, ! Handle
  0.9.3;                                  ! Version Identifier

OS:Material,
  {d8e71e1b-d2b6-42b8-b277-d652bd89e3f0}, ! Handle
  Roof Insulation [1],                    ! Name
  MediumRough,                            ! Roughness
  0.123533,                               ! Thickness {m}
  0.049,                                  ! Conductivity {W/m-K}
  265,                                    ! Density {kg/m3}
  836.8,                                  ! Specific Heat {J/kg-K}
  0.9,                                    ! Thermal Absorptance
  0.7,                                    ! Solar Absorptance
  0.7;                                    ! Visible Absorptance

OS:ComponentCost:LineItem,
  {f99a8fdc-45c2-473b-bb2d-6124078ed63e}, ! Handle
  90.1-2001 Nonres B1 Roof Metal Building, ! Name
  ,                                       ! Type
  Construction,                           ! Line Item Type
  90.1-2001 Nonres B1 Roof Metal Building, ! Item Name
  ,                                       ! Object End Use Key
  ,                                       ! Quantity {dimensionless}
  38.206,                                 ! Material Cost {$}
  CostPerArea;                            ! Material Cost Units

OS:Material,
  {2ef1960c-2c04-4843-b081-c4f1ed77c37f}, ! Handle
  Metal Roofing,                          ! Name
  MediumSmooth,                           ! Roughness
  0.001524,                               ! Thickness {m}
  45.006,                                 ! Conductivity {W/m-K}
  7680,                                   ! Density {kg/m3}
  418.4,                                  ! Specific Heat {J/kg-K}
  0.9,                                    ! Thermal Absorptance
  0.7,                                    ! Solar Absorptance
  0.3;                                    ! Visible Absorptance

OS:Construction,
  {0b4f7a58-a48b-459e-96f6-023ce311cb0e}, ! Handle
  90.1-2001 Nonres B1 Roof Metal Building, ! Name
  ,                                       ! Surface Rendering Name
  {2ef1960c-2c04-4843-b081-c4f1ed77c37f}, ! Layer 1
  {d8e71e1b-d2b6-42b8-b277-d652bd89e3f0}; ! Layer 2

