
OS:Version,
  {d4cdf4f9-c62a-4ec8-9177-852a65eb6386}, ! Handle
  0.9.3;                                  ! Version Identifier

OS:Construction,
  {6f8abf24-5747-4944-8c99-3022dd9b1418}, ! Handle
  90.1-2004 Nonres 3A Roof Attic and Other, ! Name
  ,                                       ! Surface Rendering Name
  {2a1d17f3-3426-4a2e-956e-c20dce183aa0}, ! Layer 1
  {9c24dd91-4c4e-4b06-96b9-54e5b66d1269}, ! Layer 2
  {35cc16a1-69cb-4df5-a966-2690a3393eb3}, ! Layer 3
  {5c1df0c5-9f08-416a-9b64-f0eba17601b0}; ! Layer 4

OS:Material,
  {2a1d17f3-3426-4a2e-956e-c20dce183aa0}, ! Handle
  Wood Shingles,                          ! Name
  VeryRough,                              ! Roughness
  0.0178,                                 ! Thickness {m}
  0.115,                                  ! Conductivity {W/m-K}
  513,                                    ! Density {kg/m3}
  1255,                                   ! Specific Heat {J/kg-K}
  0.9,                                    ! Thermal Absorptance
  0.78,                                   ! Solar Absorptance
  0.78;                                   ! Visible Absorptance

OS:Material,
  {9c24dd91-4c4e-4b06-96b9-54e5b66d1269}, ! Handle
  1IN Wood Decking,                       ! Name
  MediumSmooth,                           ! Roughness
  0.0254,                                 ! Thickness {m}
  0.1211,                                 ! Conductivity {W/m-K}
  593,                                    ! Density {kg/m3}
  2510,                                   ! Specific Heat {J/kg-K}
  0.9,                                    ! Thermal Absorptance
  0.78,                                   ! Solar Absorptance
  0.78;                                   ! Visible Absorptance

OS:Material,
  {35cc16a1-69cb-4df5-a966-2690a3393eb3}, ! Handle
  Roof Insulation [2],                    ! Name
  MediumRough,                            ! Roughness
  0.221604,                               ! Thickness {m}
  0.049,                                  ! Conductivity {W/m-K}
  265,                                    ! Density {kg/m3}
  836.8,                                  ! Specific Heat {J/kg-K}
  0.9,                                    ! Thermal Absorptance
  0.7,                                    ! Solar Absorptance
  0.7;                                    ! Visible Absorptance

OS:Material,
  {5c1df0c5-9f08-416a-9b64-f0eba17601b0}, ! Handle
  1/2IN Gypsum,                           ! Name
  Smooth,                                 ! Roughness
  0.01271,                                ! Thickness {m}
  0.16,                                   ! Conductivity {W/m-K}
  784.9,                                  ! Density {kg/m3}
  830,                                    ! Specific Heat {J/kg-K}
  0.9,                                    ! Thermal Absorptance
  0.92,                                   ! Solar Absorptance
  0.92;                                   ! Visible Absorptance

OS:ComponentCost:LineItem,
  {e9564831-6f61-4378-a86d-d95756edcbef}, ! Handle
  90.1-2004 Nonres 3A Roof Attic and Other, ! Name
  ,                                       ! Type
  Construction,                           ! Line Item Type
  90.1-2004 Nonres 3A Roof Attic and Other, ! Item Name
  ,                                       ! Object End Use Key
  ,                                       ! Quantity {dimensionless}
  33.39,                                  ! Material Cost {$}
  CostPerArea;                            ! Material Cost Units

OS:ComponentData,
  {5346fdb4-2a33-4e36-82a6-ef5fa2646dc4}, ! Handle
  Component Data 1,                       ! Name
  {b6a3ad10-1c6d-4c46-9f65-8a3bfc9efcb4}, ! UUID
  {e9fe7d28-9c6a-4995-9af7-a053320e84c0}, ! Version UUID
  1363981645,                             ! Creation Timestamp
  1363981645,                             ! Version Timestamp
  {6f8abf24-5747-4944-8c99-3022dd9b1418}, ! Name of Object 1
  {2a1d17f3-3426-4a2e-956e-c20dce183aa0}, ! Name of Object 2
  {9c24dd91-4c4e-4b06-96b9-54e5b66d1269}, ! Name of Object 3
  {35cc16a1-69cb-4df5-a966-2690a3393eb3}, ! Name of Object 4
  {5c1df0c5-9f08-416a-9b64-f0eba17601b0}, ! Name of Object 5
  {e9564831-6f61-4378-a86d-d95756edcbef}; ! Name of Object 6

