
OS:Version,
  {930e1047-9892-45e4-8f16-edc57914d7dd}, ! Handle
  0.9.3;                                  ! Version Identifier

OS:Material,
  {d5add975-99dd-4423-9789-42571cf0a4d2}, ! Handle
  Roof Insulation [2],                    ! Name
  MediumRough,                            ! Roughness
  0.221604,                               ! Thickness {m}
  0.049,                                  ! Conductivity {W/m-K}
  265,                                    ! Density {kg/m3}
  836.8,                                  ! Specific Heat {J/kg-K}
  0.9,                                    ! Thermal Absorptance
  0.7,                                    ! Solar Absorptance
  0.7;                                    ! Visible Absorptance

OS:Material,
  {72fac195-2622-4134-995f-edf7cd9d0f16}, ! Handle
  1/2IN Gypsum,                           ! Name
  Smooth,                                 ! Roughness
  0.01271,                                ! Thickness {m}
  0.16,                                   ! Conductivity {W/m-K}
  784.9,                                  ! Density {kg/m3}
  830,                                    ! Specific Heat {J/kg-K}
  0.9,                                    ! Thermal Absorptance
  0.92,                                   ! Solar Absorptance
  0.92;                                   ! Visible Absorptance

OS:ComponentCost:LineItem,
  {0f79a404-e2ce-408d-906a-af5e603525e2}, ! Handle
  90.1-2004 Nonres 3A Roof Attic and Other, ! Name
  ,                                       ! Type
  Construction,                           ! Line Item Type
  90.1-2004 Nonres 3A Roof Attic and Other, ! Item Name
  ,                                       ! Object End Use Key
  ,                                       ! Quantity {dimensionless}
  33.39,                                  ! Material Cost {$}
  CostPerArea;                            ! Material Cost Units

OS:Construction,
  {e5a4b0ca-20a4-45ba-ba48-a750dfd6f71c}, ! Handle
  90.1-2004 Nonres 3A Roof Attic and Other, ! Name
  ,                                       ! Surface Rendering Name
  {d126c6c6-5d1c-4707-9de1-528f6ef2c142}, ! Layer 1
  {074ff0e4-9c49-4f8e-8435-23d0ddd4cb57}, ! Layer 2
  {d5add975-99dd-4423-9789-42571cf0a4d2}, ! Layer 3
  {72fac195-2622-4134-995f-edf7cd9d0f16}; ! Layer 4

OS:Material,
  {d126c6c6-5d1c-4707-9de1-528f6ef2c142}, ! Handle
  Wood Shingles,                          ! Name
  VeryRough,                              ! Roughness
  0.0178,                                 ! Thickness {m}
  0.115,                                  ! Conductivity {W/m-K}
  513,                                    ! Density {kg/m3}
  1255,                                   ! Specific Heat {J/kg-K}
  0.9,                                    ! Thermal Absorptance
  0.78,                                   ! Solar Absorptance
  0.78;                                   ! Visible Absorptance

OS:Material,
  {074ff0e4-9c49-4f8e-8435-23d0ddd4cb57}, ! Handle
  1IN Wood Decking,                       ! Name
  MediumSmooth,                           ! Roughness
  0.0254,                                 ! Thickness {m}
  0.1211,                                 ! Conductivity {W/m-K}
  593,                                    ! Density {kg/m3}
  2510,                                   ! Specific Heat {J/kg-K}
  0.9,                                    ! Thermal Absorptance
  0.78,                                   ! Solar Absorptance
  0.78;                                   ! Visible Absorptance

