
OS:Version,
  {9884a270-e8d1-414a-972a-dd6fb1c81b18}, ! Handle
  0.9.3;                                  ! Version Identifier

OS:Material:NoMass,
  {2d939114-9675-42b9-a132-dcf5c1a8320a}, ! Handle
  MAT-SHEATH,                             ! Name
  Rough,                                  ! Roughness
  0.36256,                                ! Thermal Resistance {m2-K/W}
  0.9,                                    ! Thermal Absorptance
  0.7,                                    ! Solar Absorptance
  0.7;                                    ! Visible Absorptance

OS:Material,
  {e9bf0ef2-3be1-45e8-aa08-4c0e8b2ced25}, ! Handle
  1/2IN Gypsum,                           ! Name
  Smooth,                                 ! Roughness
  0.01271,                                ! Thickness {m}
  0.16,                                   ! Conductivity {W/m-K}
  784.9,                                  ! Density {kg/m3}
  830,                                    ! Specific Heat {J/kg-K}
  0.9,                                    ! Thermal Absorptance
  0.92,                                   ! Solar Absorptance
  0.92;                                   ! Visible Absorptance

OS:Construction,
  {dd76d5b4-1eeb-4e5b-8155-c36b5f1a54d0}, ! Handle
  189.1-2009 Nonres 4B Ext Wall Steel-Framed, ! Name
  ,                                       ! Surface Rendering Name
  {2d939114-9675-42b9-a132-dcf5c1a8320a}, ! Layer 1
  {6f86872d-7922-4884-8a87-53903cbec9ca}, ! Layer 2
  {e9bf0ef2-3be1-45e8-aa08-4c0e8b2ced25}; ! Layer 3

OS:Material,
  {6f86872d-7922-4884-8a87-53903cbec9ca}, ! Handle
  Wall Insulation [39],                   ! Name
  MediumRough,                            ! Roughness
  0.118387,                               ! Thickness {m}
  0.045,                                  ! Conductivity {W/m-K}
  265,                                    ! Density {kg/m3}
  836.8,                                  ! Specific Heat {J/kg-K}
  0.9,                                    ! Thermal Absorptance
  0.7,                                    ! Solar Absorptance
  0.7;                                    ! Visible Absorptance

OS:ComponentCost:LineItem,
  {25c586ef-5d70-4e6d-a7de-cafb186ec3d6}, ! Handle
  189.1-2009 Nonres 4B Ext Wall Steel-Framed, ! Name
  ,                                       ! Type
  Construction,                           ! Line Item Type
  189.1-2009 Nonres 4B Ext Wall Steel-Framed, ! Item Name
  ,                                       ! Object End Use Key
  ,                                       ! Quantity {dimensionless}
  97.51,                                  ! Material Cost {$}
  CostPerArea;                            ! Material Cost Units

