
OS:Version,
  {d05b4952-6b3e-4328-9bc1-5c78976efa72}, ! Handle
  0.9.3;                                  ! Version Identifier

OS:Construction,
  {bbdc5559-a47c-462d-b6d0-d971d2b5a908}, ! Handle
  90.1-2001 Res B13 Skylight without Curb, ! Name
  ,                                       ! Surface Rendering Name
  {3f5708ad-1c86-4fa4-b026-a4af98ee38b7}; ! Layer 1

OS:WindowMaterial:Glazing,
  {3f5708ad-1c86-4fa4-b026-a4af98ee38b7}, ! Handle
  Theoretical Glass [91],                 ! Name
  SpectralAverage,                        ! Optical Data Type
  ,                                       ! Window Glass Spectral Data Set Name
  0.003,                                  ! Thickness {m}
  0.37308,                                ! Solar Transmittance at Normal Incidence
  0.57692,                                ! Front Side Solar Reflectance at Normal Incidence
  0.57692,                                ! Back Side Solar Reflectance at Normal Incidence
  0.390045,                               ! Visible Transmittance at Normal Incidence
  0.559955,                               ! Front Side Visible Reflectance at Normal Incidence
  0.559955,                               ! Back Side Visible Reflectance at Normal Incidence
  0,                                      ! Infrared Transmittance at Normal Incidence
  0.9,                                    ! Front Side Infrared Hemispherical Emissivity
  0.9,                                    ! Back Side Infrared Hemispherical Emissivity
  0.0324872;                              ! Conductivity {W/m-K}

OS:ComponentCost:LineItem,
  {370ad8bc-6e41-4fe1-bd4c-05320b9d9b27}, ! Handle
  90.1-2001 Res B13 Skylight without Curb, ! Name
  ,                                       ! Type
  Construction,                           ! Line Item Type
  90.1-2001 Res B13 Skylight without Curb, ! Item Name
  ,                                       ! Object End Use Key
  ,                                       ! Quantity {dimensionless}
  535.8,                                  ! Material Cost {$}
  CostPerArea;                            ! Material Cost Units

OS:ComponentData,
  {c558ea69-e707-449d-972c-18eabd460e78}, ! Handle
  Component Data 1,                       ! Name
  {4b4d538a-793b-4da5-8b42-0bc0ee4fc0a9}, ! UUID
  {8737a6ef-ddd1-4b4e-b3ae-b66ad56cae4a}, ! Version UUID
  1363981526,                             ! Creation Timestamp
  1363981526,                             ! Version Timestamp
  {bbdc5559-a47c-462d-b6d0-d971d2b5a908}, ! Name of Object 1
  {3f5708ad-1c86-4fa4-b026-a4af98ee38b7}, ! Name of Object 2
  {370ad8bc-6e41-4fe1-bd4c-05320b9d9b27}; ! Name of Object 3

