
OS:Version,
  {809ea928-6fb7-4d74-9140-cb525689afc9}, ! Handle
  0.9.3;                                  ! Version Identifier

OS:Material,
  {abc5b511-96e4-4945-9c12-648d8985aae8}, ! Handle
  1/2IN Gypsum,                           ! Name
  Smooth,                                 ! Roughness
  0.01271,                                ! Thickness {m}
  0.16,                                   ! Conductivity {W/m-K}
  784.9,                                  ! Density {kg/m3}
  830,                                    ! Specific Heat {J/kg-K}
  0.9,                                    ! Thermal Absorptance
  0.92,                                   ! Solar Absorptance
  0.92;                                   ! Visible Absorptance

OS:Material,
  {f0930b51-9f00-472a-8b4e-8923f0ceeff8}, ! Handle
  Roof Insulation [5],                    ! Name
  MediumRough,                            ! Roughness
  0.286906,                               ! Thickness {m}
  0.049,                                  ! Conductivity {W/m-K}
  265,                                    ! Density {kg/m3}
  836.8,                                  ! Specific Heat {J/kg-K}
  0.9,                                    ! Thermal Absorptance
  0.7,                                    ! Solar Absorptance
  0.7;                                    ! Visible Absorptance

OS:Material,
  {51d41f75-c276-45cf-be4a-2bec39cd03dd}, ! Handle
  1IN Wood Decking,                       ! Name
  MediumSmooth,                           ! Roughness
  0.0254,                                 ! Thickness {m}
  0.1211,                                 ! Conductivity {W/m-K}
  593,                                    ! Density {kg/m3}
  2510,                                   ! Specific Heat {J/kg-K}
  0.9,                                    ! Thermal Absorptance
  0.78,                                   ! Solar Absorptance
  0.78;                                   ! Visible Absorptance

OS:Material,
  {321a5403-8a69-42e4-8bae-c292270f81a0}, ! Handle
  Wood Shingles,                          ! Name
  VeryRough,                              ! Roughness
  0.0178,                                 ! Thickness {m}
  0.115,                                  ! Conductivity {W/m-K}
  513,                                    ! Density {kg/m3}
  1255,                                   ! Specific Heat {J/kg-K}
  0.9,                                    ! Thermal Absorptance
  0.78,                                   ! Solar Absorptance
  0.78;                                   ! Visible Absorptance

OS:Construction,
  {5632a856-277d-4e47-a00b-5a3d077517f5}, ! Handle
  90.1-2004 Res 5B Roof Attic and Other,  ! Name
  ,                                       ! Surface Rendering Name
  {321a5403-8a69-42e4-8bae-c292270f81a0}, ! Layer 1
  {51d41f75-c276-45cf-be4a-2bec39cd03dd}, ! Layer 2
  {f0930b51-9f00-472a-8b4e-8923f0ceeff8}, ! Layer 3
  {abc5b511-96e4-4945-9c12-648d8985aae8}; ! Layer 4

OS:ComponentCost:LineItem,
  {9a5731e2-7359-4f0d-bcc6-b7cb74ea9b46}, ! Handle
  90.1-2004 Res 5B Roof Attic and Other,  ! Name
  ,                                       ! Type
  Construction,                           ! Line Item Type
  90.1-2004 Res 5B Roof Attic and Other,  ! Item Name
  ,                                       ! Object End Use Key
  ,                                       ! Quantity {dimensionless}
  34.757,                                 ! Material Cost {$}
  CostPerArea;                            ! Material Cost Units

