
OS:Version,
  {56a63fc9-795c-423d-99b0-e9bae1800083}, ! Handle
  0.9.3;                                  ! Version Identifier

OS:WindowMaterial:Glazing,
  {19532117-3703-4f00-97ac-e30d6a83893d}, ! Handle
  Theoretical Glass [73],                 ! Name
  SpectralAverage,                        ! Optical Data Type
  ,                                       ! Window Glass Spectral Data Set Name
  0.003,                                  ! Thickness {m}
  0.395963,                               ! Solar Transmittance at Normal Incidence
  0.554037,                               ! Front Side Solar Reflectance at Normal Incidence
  0.554037,                               ! Back Side Solar Reflectance at Normal Incidence
  0.410537,                               ! Visible Transmittance at Normal Incidence
  0.539463,                               ! Front Side Visible Reflectance at Normal Incidence
  0.539463,                               ! Back Side Visible Reflectance at Normal Incidence
  0,                                      ! Infrared Transmittance at Normal Incidence
  0.999,                                  ! Front Side Infrared Hemispherical Emissivity
  0.999,                                  ! Back Side Infrared Hemispherical Emissivity
  9.36219;                                ! Conductivity {W/m-K}

OS:ComponentCost:LineItem,
  {ed286b73-d9e1-44b0-a10e-57cdfe60ec46}, ! Handle
  90.1-1999 Res B6 Window Fixed,          ! Name
  ,                                       ! Type
  Construction,                           ! Line Item Type
  90.1-1999 Res B6 Window Fixed,          ! Item Name
  ,                                       ! Object End Use Key
  ,                                       ! Quantity {dimensionless}
  486.627,                                ! Material Cost {$}
  CostPerArea;                            ! Material Cost Units

OS:Construction,
  {59ec2e4b-b4ba-4d33-b6b6-3c9d9a127b0c}, ! Handle
  90.1-1999 Res B6 Window Fixed,          ! Name
  ,                                       ! Surface Rendering Name
  {19532117-3703-4f00-97ac-e30d6a83893d}; ! Layer 1

