
OS:Version,
  {3e8c12ad-9584-48b9-a665-e3a758024012}, ! Handle
  0.9.3;                                  ! Version Identifier

OS:Material,
  {436807ce-4740-4922-b1f1-3d9d50275143}, ! Handle
  Wood Shingles,                          ! Name
  VeryRough,                              ! Roughness
  0.0178,                                 ! Thickness {m}
  0.115,                                  ! Conductivity {W/m-K}
  513,                                    ! Density {kg/m3}
  1255,                                   ! Specific Heat {J/kg-K}
  0.9,                                    ! Thermal Absorptance
  0.78,                                   ! Solar Absorptance
  0.78;                                   ! Visible Absorptance

OS:ComponentCost:LineItem,
  {371b4de8-77db-4b31-949b-f1eae6b58afc}, ! Handle
  90.1-1999 Res B19 Roof Attic and Other, ! Name
  ,                                       ! Type
  Construction,                           ! Line Item Type
  90.1-1999 Res B19 Roof Attic and Other, ! Item Name
  ,                                       ! Object End Use Key
  ,                                       ! Quantity {dimensionless}
  34.757,                                 ! Material Cost {$}
  CostPerArea;                            ! Material Cost Units

OS:Material,
  {de729ce7-16ed-45e9-9b30-c6e2b38faa89}, ! Handle
  1IN Wood Decking,                       ! Name
  MediumSmooth,                           ! Roughness
  0.0254,                                 ! Thickness {m}
  0.1211,                                 ! Conductivity {W/m-K}
  593,                                    ! Density {kg/m3}
  2510,                                   ! Specific Heat {J/kg-K}
  0.9,                                    ! Thermal Absorptance
  0.78,                                   ! Solar Absorptance
  0.78;                                   ! Visible Absorptance

OS:Material,
  {69c722c8-e163-4163-ac81-48ac686ebaf0}, ! Handle
  1/2IN Gypsum,                           ! Name
  Smooth,                                 ! Roughness
  0.01271,                                ! Thickness {m}
  0.16,                                   ! Conductivity {W/m-K}
  784.9,                                  ! Density {kg/m3}
  830,                                    ! Specific Heat {J/kg-K}
  0.9,                                    ! Thermal Absorptance
  0.92,                                   ! Solar Absorptance
  0.92;                                   ! Visible Absorptance

OS:Material,
  {6c1a3fa0-7ac2-4754-ae97-82335070bb56}, ! Handle
  Roof Insulation [5],                    ! Name
  MediumRough,                            ! Roughness
  0.286906,                               ! Thickness {m}
  0.049,                                  ! Conductivity {W/m-K}
  265,                                    ! Density {kg/m3}
  836.8,                                  ! Specific Heat {J/kg-K}
  0.9,                                    ! Thermal Absorptance
  0.7,                                    ! Solar Absorptance
  0.7;                                    ! Visible Absorptance

OS:Construction,
  {619ea64c-ec67-4bde-b946-80d46ef96b46}, ! Handle
  90.1-1999 Res B19 Roof Attic and Other, ! Name
  ,                                       ! Surface Rendering Name
  {436807ce-4740-4922-b1f1-3d9d50275143}, ! Layer 1
  {de729ce7-16ed-45e9-9b30-c6e2b38faa89}, ! Layer 2
  {6c1a3fa0-7ac2-4754-ae97-82335070bb56}, ! Layer 3
  {69c722c8-e163-4163-ac81-48ac686ebaf0}; ! Layer 4

