
OS:Version,
  {5d0a572e-7848-476b-b6cb-4044c11522a7}, ! Handle
  0.9.3;                                  ! Version Identifier

OS:Material,
  {4bd5148c-43ea-4d53-badd-02fdc9609837}, ! Handle
  Wood Siding,                            ! Name
  MediumSmooth,                           ! Roughness
  0.01,                                   ! Thickness {m}
  0.11,                                   ! Conductivity {W/m-K}
  544.62,                                 ! Density {kg/m3}
  1210,                                   ! Specific Heat {J/kg-K}
  0.9,                                    ! Thermal Absorptance
  0.78,                                   ! Solar Absorptance
  0.78;                                   ! Visible Absorptance

OS:Construction,
  {758070e8-90bd-40f0-8262-af75bd732e3a}, ! Handle
  90.1-1999 Res B4 Ext Wall Wood-Framed and Other, ! Name
  ,                                       ! Surface Rendering Name
  {4bd5148c-43ea-4d53-badd-02fdc9609837}, ! Layer 1
  {45e2bcb9-3acf-4e3f-bb44-0deb086c817d}, ! Layer 2
  {7ec67913-9f35-48a1-841e-bf0af400ae68}; ! Layer 3

OS:Material,
  {45e2bcb9-3acf-4e3f-bb44-0deb086c817d}, ! Handle
  Wall Insulation [2],                    ! Name
  MediumRough,                            ! Roughness
  0.0746874,                              ! Thickness {m}
  0.045,                                  ! Conductivity {W/m-K}
  265,                                    ! Density {kg/m3}
  836.8,                                  ! Specific Heat {J/kg-K}
  0.9,                                    ! Thermal Absorptance
  0.7,                                    ! Solar Absorptance
  0.7;                                    ! Visible Absorptance

OS:Material,
  {7ec67913-9f35-48a1-841e-bf0af400ae68}, ! Handle
  1/2IN Gypsum,                           ! Name
  Smooth,                                 ! Roughness
  0.01271,                                ! Thickness {m}
  0.16,                                   ! Conductivity {W/m-K}
  784.9,                                  ! Density {kg/m3}
  830,                                    ! Specific Heat {J/kg-K}
  0.9,                                    ! Thermal Absorptance
  0.92,                                   ! Solar Absorptance
  0.92;                                   ! Visible Absorptance

OS:ComponentCost:LineItem,
  {16a87e17-8e5f-439a-b7a3-494a786a9ce9}, ! Handle
  90.1-1999 Res B4 Ext Wall Wood-Framed and Other, ! Name
  ,                                       ! Type
  Construction,                           ! Line Item Type
  90.1-1999 Res B4 Ext Wall Wood-Framed and Other, ! Item Name
  ,                                       ! Object End Use Key
  ,                                       ! Quantity {dimensionless}
  73.056,                                 ! Material Cost {$}
  CostPerArea;                            ! Material Cost Units

