
OS:Version,
  {417315d6-5f8c-4d5d-b52f-1aee1c425eaa}, ! Handle
  0.9.3;                                  ! Version Identifier

OS:Material,
  {f48af161-0f5c-44e0-9f9c-4bde9b9f7ed3}, ! Handle
  MAT-CC05 8 HW CONCRETE,                 ! Name
  Rough,                                  ! Roughness
  0.20321,                                ! Thickness {m}
  1.311,                                  ! Conductivity {W/m-K}
  2240,                                   ! Density {kg/m3}
  836.8,                                  ! Specific Heat {J/kg-K}
  0.9,                                    ! Thermal Absorptance
  0.7,                                    ! Solar Absorptance
  0.7;                                    ! Visible Absorptance

OS:ComponentCost:LineItem,
  {a8060a2f-ce70-4fd5-a743-bc8701d9434b}, ! Handle
  90.1-2001 Nonres B18 Ext Slab Unheated - 8in Slab without Carpet, ! Name
  ,                                       ! Type
  Construction,                           ! Line Item Type
  90.1-2001 Nonres B18 Ext Slab Unheated - 8in Slab without Carpet, ! Item Name
  ,                                       ! Object End Use Key
  ,                                       ! Quantity {dimensionless}
  45.52,                                  ! Material Cost {$}
  CostPerArea;                            ! Material Cost Units

OS:Construction,
  {b82eb475-57bd-4920-b904-301065fd9565}, ! Handle
  90.1-2001 Nonres B18 Ext Slab Unheated - 8in Slab without Carpet, ! Name
  ,                                       ! Surface Rendering Name
  {f48af161-0f5c-44e0-9f9c-4bde9b9f7ed3}; ! Layer 1

