
OS:Version,
  {0ddff2e8-45ed-435c-8123-efaf05889c1d}, ! Handle
  0.9.3;                                  ! Version Identifier

OS:Construction,
  {9578fc65-ae1b-4b46-a8a7-1f49951539d8}, ! Handle
  90.1-2001 Nonres B18 Ext Slab Unheated - 8in Slab without Carpet, ! Name
  ,                                       ! Surface Rendering Name
  {4826b873-2c78-4017-8c03-174d0a04412b}; ! Layer 1

OS:Material,
  {4826b873-2c78-4017-8c03-174d0a04412b}, ! Handle
  MAT-CC05 8 HW CONCRETE,                 ! Name
  Rough,                                  ! Roughness
  0.20321,                                ! Thickness {m}
  1.311,                                  ! Conductivity {W/m-K}
  2240,                                   ! Density {kg/m3}
  836.8,                                  ! Specific Heat {J/kg-K}
  0.9,                                    ! Thermal Absorptance
  0.7,                                    ! Solar Absorptance
  0.7;                                    ! Visible Absorptance

OS:ComponentCost:LineItem,
  {78d5286f-e3a8-4b71-b508-33d4c815ada4}, ! Handle
  90.1-2001 Nonres B18 Ext Slab Unheated - 8in Slab without Carpet, ! Name
  ,                                       ! Type
  Construction,                           ! Line Item Type
  90.1-2001 Nonres B18 Ext Slab Unheated - 8in Slab without Carpet, ! Item Name
  ,                                       ! Object End Use Key
  ,                                       ! Quantity {dimensionless}
  45.52,                                  ! Material Cost {$}
  CostPerArea;                            ! Material Cost Units

OS:ComponentData,
  {14a352bc-89ca-43b0-a498-f09a57c7e95c}, ! Handle
  Component Data 1,                       ! Name
  {77ac731b-277b-48ff-8f17-e44829cb88ac}, ! UUID
  {f405ff47-731a-4897-97cc-4e1684e7c3dc}, ! Version UUID
  1363981389,                             ! Creation Timestamp
  1363981389,                             ! Version Timestamp
  {9578fc65-ae1b-4b46-a8a7-1f49951539d8}, ! Name of Object 1
  {4826b873-2c78-4017-8c03-174d0a04412b}, ! Name of Object 2
  {78d5286f-e3a8-4b71-b508-33d4c815ada4}; ! Name of Object 3

