
OS:Version,
  {1041d2c6-e666-4a78-a9ae-01e6208c0bfc}, !- Handle
  1.0.6;                                  !- Version Identifier

OS:WindowMaterial:Glazing,
  {bcba28d2-be68-4b65-a5d6-9fda0b54abc3}, !- Handle
  189.1-2011 NONRES 8A METAL FRAMING ALL OTHER THEORETICAL GLAZING, !- Name
  SpectralAverage,                        !- Optical Data Type
  ,                                       !- Window Glass Spectral Data Set Name
  0.03746,                                !- Thickness {m}
  0.36619,                                !- Solar Transmittance at Normal Incidence
  0.435,                                  !- Front Side Solar Reflectance at Normal Incidence
  0.435,                                  !- Back Side Solar Reflectance at Normal Incidence
  0.36619,                                !- Visible Transmittance at Normal Incidence
  0.435,                                  !- Front Side Visible Reflectance at Normal Incidence
  0.435,                                  !- Back Side Visible Reflectance at Normal Incidence
  0,                                      !- Infrared Transmittance at Normal Incidence
  0.84,                                   !- Front Side Infrared Hemispherical Emissivity
  0.84,                                   !- Back Side Infrared Hemispherical Emissivity
  0.11374,                                !- Conductivity {W/m-K}
  1,                                      !- Dirt Correction Factor for Solar and Visible Transmittance
  No;                                     !- Solar Diffusing

OS:Construction,
  {e93e8259-194e-4152-91a6-8a76058e3926}, !- Handle
  189.1-2011 NONRES 8 METAL FRAMING ALL OTHER, !- Name
  ,                                       !- Surface Rendering Name
  {bcba28d2-be68-4b65-a5d6-9fda0b54abc3}; !- Layer 1

