
OS:Version,
  {b5c3d186-8eca-4dcf-9160-9928ac3f2c86}, ! Handle
  0.9.3;                                  ! Version Identifier

OS:Material,
  {7d237c65-116f-41fa-bf9c-fff611c1a4f1}, ! Handle
  1/2IN Gypsum,                           ! Name
  Smooth,                                 ! Roughness
  0.01271,                                ! Thickness {m}
  0.16,                                   ! Conductivity {W/m-K}
  784.9,                                  ! Density {kg/m3}
  830,                                    ! Specific Heat {J/kg-K}
  0.9,                                    ! Thermal Absorptance
  0.92,                                   ! Solar Absorptance
  0.92;                                   ! Visible Absorptance

OS:Material:NoMass,
  {d5f9f6a9-fea9-45f5-88d8-83289d301516}, ! Handle
  MAT-SHEATH,                             ! Name
  Rough,                                  ! Roughness
  0.36256,                                ! Thermal Resistance {m2-K/W}
  0.9,                                    ! Thermal Absorptance
  0.7,                                    ! Solar Absorptance
  0.7;                                    ! Visible Absorptance

OS:ComponentCost:LineItem,
  {0be2b0c5-e919-4cc8-813f-2450d2089a0d}, ! Handle
  90.1-1999 Nonres B6 Ext Wall Steel-Framed, ! Name
  ,                                       ! Type
  Construction,                           ! Line Item Type
  90.1-1999 Nonres B6 Ext Wall Steel-Framed, ! Item Name
  ,                                       ! Object End Use Key
  ,                                       ! Quantity {dimensionless}
  87.08,                                  ! Material Cost {$}
  CostPerArea;                            ! Material Cost Units

OS:Material,
  {6cfd10bf-1791-435d-8db2-d7fb170fc64b}, ! Handle
  Wall Insulation [1],                    ! Name
  MediumRough,                            ! Roughness
  0.0373223,                              ! Thickness {m}
  0.045,                                  ! Conductivity {W/m-K}
  265,                                    ! Density {kg/m3}
  836.8,                                  ! Specific Heat {J/kg-K}
  0.9,                                    ! Thermal Absorptance
  0.7,                                    ! Solar Absorptance
  0.7;                                    ! Visible Absorptance

OS:Construction,
  {f74dffc4-545d-4b2f-a0dc-16870cf96a68}, ! Handle
  90.1-1999 Nonres B6 Ext Wall Steel-Framed, ! Name
  ,                                       ! Surface Rendering Name
  {d5f9f6a9-fea9-45f5-88d8-83289d301516}, ! Layer 1
  {6cfd10bf-1791-435d-8db2-d7fb170fc64b}, ! Layer 2
  {7d237c65-116f-41fa-bf9c-fff611c1a4f1}; ! Layer 3

