
OS:Version,
  {2af9670a-1ad0-47d8-af38-f98f9acd3142}, ! Handle
  0.9.3;                                  ! Version Identifier

OS:Material,
  {545ce694-6621-47c8-95ff-db8e5be788f2}, ! Handle
  1/2IN Gypsum Top,                       ! Name
  Smooth,                                 ! Roughness
  0.01271,                                ! Thickness {m}
  0.16,                                   ! Conductivity {W/m-K}
  784.9,                                  ! Density {kg/m3}
  830,                                    ! Specific Heat {J/kg-K}
  0.9,                                    ! Thermal Absorptance
  0.92,                                   ! Solar Absorptance
  0.92;                                   ! Visible Absorptance

OS:ComponentCost:LineItem,
  {49f47a29-1a57-4e9f-81cd-06a32b8eccc4}, ! Handle
  Title 24-2008 Nonres 8 Attic Floor,     ! Name
  ,                                       ! Type
  Construction,                           ! Line Item Type
  Title 24-2008 Nonres 8 Attic Floor,     ! Item Name
  ,                                       ! Object End Use Key
  ,                                       ! Quantity {dimensionless}
  31.629,                                 ! Material Cost {$}
  CostPerArea;                            ! Material Cost Units

OS:Material,
  {81a0043c-077b-4e10-b221-b19c753a283f}, ! Handle
  AtticFloor Insulation [51],             ! Name
  MediumRough,                            ! Roughness
  0.113285,                               ! Thickness {m}
  0.049,                                  ! Conductivity {W/m-K}
  265,                                    ! Density {kg/m3}
  836.8,                                  ! Specific Heat {J/kg-K}
  0.9,                                    ! Thermal Absorptance
  0.7,                                    ! Solar Absorptance
  0.7;                                    ! Visible Absorptance

OS:Construction,
  {56d96e55-b9d6-4f57-8825-0379ede17560}, ! Handle
  Title 24-2008 Nonres 8 Attic Floor,     ! Name
  ,                                       ! Surface Rendering Name
  {545ce694-6621-47c8-95ff-db8e5be788f2}, ! Layer 1
  {81a0043c-077b-4e10-b221-b19c753a283f}, ! Layer 2
  {86a5ed27-8ba3-41f6-8d90-72dcf77d436a}; ! Layer 3

OS:Material,
  {86a5ed27-8ba3-41f6-8d90-72dcf77d436a}, ! Handle
  1/2IN Gypsum Bottom,                    ! Name
  Smooth,                                 ! Roughness
  0.01271,                                ! Thickness {m}
  0.16,                                   ! Conductivity {W/m-K}
  784.9,                                  ! Density {kg/m3}
  830,                                    ! Specific Heat {J/kg-K}
  0.9,                                    ! Thermal Absorptance
  0.92,                                   ! Solar Absorptance
  0.92;                                   ! Visible Absorptance

