
OS:Version,
  {99f868d6-8243-410d-978c-6c7688fc2aa9}, ! Handle
  0.9.3;                                  ! Version Identifier

OS:Material,
  {46b77d91-96ee-4ede-b3ff-c393c19439f2}, ! Handle
  Wood Shingles,                          ! Name
  VeryRough,                              ! Roughness
  0.0178,                                 ! Thickness {m}
  0.115,                                  ! Conductivity {W/m-K}
  513,                                    ! Density {kg/m3}
  1255,                                   ! Specific Heat {J/kg-K}
  0.9,                                    ! Thermal Absorptance
  0.78,                                   ! Solar Absorptance
  0.78;                                   ! Visible Absorptance

OS:Material,
  {19d0a0ad-8fff-4039-beae-dbab9f0902ae}, ! Handle
  Roof Insulation [5],                    ! Name
  MediumRough,                            ! Roughness
  0.286906,                               ! Thickness {m}
  0.049,                                  ! Conductivity {W/m-K}
  265,                                    ! Density {kg/m3}
  836.8,                                  ! Specific Heat {J/kg-K}
  0.9,                                    ! Thermal Absorptance
  0.7,                                    ! Solar Absorptance
  0.7;                                    ! Visible Absorptance

OS:Material,
  {42833028-95f8-4714-8352-e88c9d1843e9}, ! Handle
  1IN Wood Decking,                       ! Name
  MediumSmooth,                           ! Roughness
  0.0254,                                 ! Thickness {m}
  0.1211,                                 ! Conductivity {W/m-K}
  593,                                    ! Density {kg/m3}
  2510,                                   ! Specific Heat {J/kg-K}
  0.9,                                    ! Thermal Absorptance
  0.78,                                   ! Solar Absorptance
  0.78;                                   ! Visible Absorptance

OS:Construction,
  {524280d1-a1cb-4d14-bf65-be77283a63b1}, ! Handle
  90.1-2001 Res B23 Roof Attic and Other, ! Name
  ,                                       ! Surface Rendering Name
  {46b77d91-96ee-4ede-b3ff-c393c19439f2}, ! Layer 1
  {42833028-95f8-4714-8352-e88c9d1843e9}, ! Layer 2
  {19d0a0ad-8fff-4039-beae-dbab9f0902ae}, ! Layer 3
  {540ac3f9-ba2a-447b-b50e-7094b2aa21b3}; ! Layer 4

OS:Material,
  {540ac3f9-ba2a-447b-b50e-7094b2aa21b3}, ! Handle
  1/2IN Gypsum,                           ! Name
  Smooth,                                 ! Roughness
  0.01271,                                ! Thickness {m}
  0.16,                                   ! Conductivity {W/m-K}
  784.9,                                  ! Density {kg/m3}
  830,                                    ! Specific Heat {J/kg-K}
  0.9,                                    ! Thermal Absorptance
  0.92,                                   ! Solar Absorptance
  0.92;                                   ! Visible Absorptance

OS:ComponentCost:LineItem,
  {34eb1986-e977-4dc8-b39a-e7b1dbb91703}, ! Handle
  90.1-2001 Res B23 Roof Attic and Other, ! Name
  ,                                       ! Type
  Construction,                           ! Line Item Type
  90.1-2001 Res B23 Roof Attic and Other, ! Item Name
  ,                                       ! Object End Use Key
  ,                                       ! Quantity {dimensionless}
  34.757,                                 ! Material Cost {$}
  CostPerArea;                            ! Material Cost Units

