
OS:Version,
  {2a1ec191-d3fa-4339-8ec2-6035364be7d5}, ! Handle
  0.9.3;                                  ! Version Identifier

OS:Construction,
  {e713d772-3eef-4271-a07f-1f87f6c05afb}, !- Handle
  CLIMALIT PLUS con COOL LITE KNT 140 F2 6 (16 argon90%) 44.2,                         !- Name
  ,                                       !- Surface Rendering Name
  {b7e7bef5-9051-4c45-a4d1-b950cda8d416}; !- Layer 1  
  



        
OS:WindowMaterial:SimpleGlazingSystem,
  {b7e7bef5-9051-4c45-a4d1-b950cda8d416}, !- Handle
  CLIMALIT PLUS con COOL LITE KNT 140 F2 6 (16 argon90%) 44.2, !- Name
  1.3,                                    !- U-Factor {W/m2-K}
  0.29,                                    !- Solar Heat Gain Coefficient
  0.37;                                    !- Visible Transmittance     


OS:ComponentCost:LineItem,
  {51b8bef9-a826-4670-a2b5-40da1d75462a}, ! Handle
  CLIMALIT PLUS con COOL LITE KNT 140 F2 6 (16 argon90%) 44.2,        ! Name
  ,                                       ! Type
  Construction,                           ! Line Item Type
  CLIMALIT PLUS con COOL LITE KNT 140 F2 6 (16 argon90%) 44.2,        ! Item Name
  ,                                       ! Object End Use Key
  ,                                       ! Quantity {dimensionless}
  600.0,                                ! Material Cost {$}
  CostPerArea;                            ! Material Cost Units



OS:ComponentData,
  {b0e312de-06a9-4215-b732-a39f849069d6}, ! Handle
  Component Data 1,                       ! Name
  {29cf59b7-424b-437b-8411-67805eb27d75}, ! UUID
  {7b338997-9203-4669-b202-7e4e5c876390}, ! Version UUID
  1487924013,                             ! Creation Timestamp
  1487924013,                             ! Version Timestamp
  {e713d772-3eef-4271-a07f-1f87f6c05afb}, ! Name of Object 1
  {b7e7bef5-9051-4c45-a4d1-b950cda8d416}, ! Name of Object 2
  {51b8bef9-a826-4670-a2b5-40da1d75462a}; ! Name of Object 3

  

