
! 
OS:Version,
  {9c37d538-db0d-4a47-9850-5bede7e76bd5}, !- Handle
  1.13.0;                                 !- Version Identifier


! {"nombreProductoCorto": "CLIMALIT PLUS con COOL LITE KNT 140 F2 6 (16 argon90%) 44.2", "codigoEAN": "", "handle": "b7e7bef5-9051-4c45-a4d1-b950cda8d416", "g": 0.29, "tV": 0.37, "u": 1.3, "nombreProducto": "CLIMALIT PLUS con COOL LITE KNT 140 F2 6 (16 argon90%) 44.2\nU:1.3 W/m2K - g:0.29 - Tv: 0.37"}
OS:WindowMaterial:SimpleGlazingSystem,
  {b7e7bef5-9051-4c45-a4d1-b950cda8d416}, !- Handle
  CLIMALIT PLUS con COOL LITE KNT 140 F2 6 (16 argon90%) 44.2, !- Name
  1.3,                                    !- U-Factor {W/m2-K}
  0.29,                                    !- Solar Heat Gain Coefficient
  0.37;                                    !- Visible Transmittance     
  
  
OS:Construction,
  {ae261b8a-6507-46c0-ae9b-d92349d54a2b}, !- Handle
  CLIMALIT PLUS con COOL LITE KNT 140 F2 6 (16 argon90%) 44.2,                         !- Name
  ,                                       !- Surface Rendering Name
  {b7e7bef5-9051-4c45-a4d1-b950cda8d416}; !- Layer 1  

