
OS:Version,
  {cc4a1136-0520-46ee-8a44-c4e1f68166aa}, ! Handle
  0.9.3;                                  ! Version Identifier

OS:Construction,
  {beb60780-4a53-444b-afaa-82731ce53f2c}, ! Handle
  90.1-1999 Nonres B9 Window Fixed,       ! Name
  ,                                       ! Surface Rendering Name
  {661e79d8-9a04-43ba-b9e0-5055b2f58acb}; ! Layer 1

OS:WindowMaterial:Glazing,
  {661e79d8-9a04-43ba-b9e0-5055b2f58acb}, ! Handle
  Theoretical Glass [22],                 ! Name
  SpectralAverage,                        ! Optical Data Type
  ,                                       ! Window Glass Spectral Data Set Name
  0.003,                                  ! Thickness {m}
  0.28689,                                ! Solar Transmittance at Normal Incidence
  0.66311,                                ! Front Side Solar Reflectance at Normal Incidence
  0.66311,                                ! Back Side Solar Reflectance at Normal Incidence
  0.306092,                               ! Visible Transmittance at Normal Incidence
  0.643908,                               ! Front Side Visible Reflectance at Normal Incidence
  0.643908,                               ! Back Side Visible Reflectance at Normal Incidence
  0,                                      ! Infrared Transmittance at Normal Incidence
  0.999,                                  ! Front Side Infrared Hemispherical Emissivity
  0.999,                                  ! Back Side Infrared Hemispherical Emissivity
  3.36874;                                ! Conductivity {W/m-K}

OS:ComponentCost:LineItem,
  {33f1528e-640d-40a1-94f2-1e1a4736371e}, ! Handle
  90.1-1999 Nonres B9 Window Fixed,       ! Name
  ,                                       ! Type
  Construction,                           ! Line Item Type
  90.1-1999 Nonres B9 Window Fixed,       ! Item Name
  ,                                       ! Object End Use Key
  ,                                       ! Quantity {dimensionless}
  473.607,                                ! Material Cost {$}
  CostPerArea;                            ! Material Cost Units

