
OS:Version,
  {3f968aef-2875-4892-a808-ea570b6994b5}, ! Handle
  0.9.3;                                  ! Version Identifier

OS:Construction,
  {d2223daf-f314-4c74-b818-0a991101aa79}, ! Handle
  90.1-1999 Nonres B9 Window Fixed,       ! Name
  ,                                       ! Surface Rendering Name
  {e48dc2d7-71dc-4ae3-b367-8346fe4215fc}; ! Layer 1

OS:WindowMaterial:Glazing,
  {e48dc2d7-71dc-4ae3-b367-8346fe4215fc}, ! Handle
  Theoretical Glass [22],                 ! Name
  SpectralAverage,                        ! Optical Data Type
  ,                                       ! Window Glass Spectral Data Set Name
  0.003,                                  ! Thickness {m}
  0.28689,                                ! Solar Transmittance at Normal Incidence
  0.66311,                                ! Front Side Solar Reflectance at Normal Incidence
  0.66311,                                ! Back Side Solar Reflectance at Normal Incidence
  0.306092,                               ! Visible Transmittance at Normal Incidence
  0.643908,                               ! Front Side Visible Reflectance at Normal Incidence
  0.643908,                               ! Back Side Visible Reflectance at Normal Incidence
  0,                                      ! Infrared Transmittance at Normal Incidence
  0.999,                                  ! Front Side Infrared Hemispherical Emissivity
  0.999,                                  ! Back Side Infrared Hemispherical Emissivity
  3.36874;                                ! Conductivity {W/m-K}

OS:ComponentCost:LineItem,
  {9cb80848-bff1-47ea-8279-b0e5d79a8ce3}, ! Handle
  90.1-1999 Nonres B9 Window Fixed,       ! Name
  ,                                       ! Type
  Construction,                           ! Line Item Type
  90.1-1999 Nonres B9 Window Fixed,       ! Item Name
  ,                                       ! Object End Use Key
  ,                                       ! Quantity {dimensionless}
  473.607,                                ! Material Cost {$}
  CostPerArea;                            ! Material Cost Units

OS:ComponentData,
  {675ba4db-8d98-4764-8e28-52052fc04bd6}, ! Handle
  Component Data 1,                       ! Name
  {bb30e238-1956-47a1-95bc-d16813323cd9}, ! UUID
  {7b31f05f-110c-47ef-a5a1-6bbaffd7f8b8}, ! Version UUID
  1363981080,                             ! Creation Timestamp
  1363981080,                             ! Version Timestamp
  {d2223daf-f314-4c74-b818-0a991101aa79}, ! Name of Object 1
  {e48dc2d7-71dc-4ae3-b367-8346fe4215fc}, ! Name of Object 2
  {9cb80848-bff1-47ea-8279-b0e5d79a8ce3}; ! Name of Object 3

