
OS:Version,
  {d5c2e9bd-4ece-45cd-a97b-4823c80bb806}, ! Handle
  0.9.3;                                  ! Version Identifier

OS:Construction,
  {a641d0b4-79a5-4be7-b7ef-1ad1011a2901}, ! Handle
  90.1-1999 Nonres B26 Ext Wall Mass,     ! Name
  ,                                       ! Surface Rendering Name
  {59e5d557-8e05-4c43-bb33-bd4e12ab0c50}, ! Layer 1
  {d2a2d1c3-830e-4ccd-a5d1-d5fb646886ea}, ! Layer 2
  {0655d280-d595-4995-a16e-3684bf5167a8}, ! Layer 3
  {bac5ed37-373f-438b-b78c-818f80103d16}; ! Layer 4

OS:Material,
  {59e5d557-8e05-4c43-bb33-bd4e12ab0c50}, ! Handle
  1IN Stucco,                             ! Name
  Smooth,                                 ! Roughness
  0.0253,                                 ! Thickness {m}
  0.6918,                                 ! Conductivity {W/m-K}
  1858,                                   ! Density {kg/m3}
  837,                                    ! Specific Heat {J/kg-K}
  0.9,                                    ! Thermal Absorptance
  0.92,                                   ! Solar Absorptance
  0.92;                                   ! Visible Absorptance

OS:Material,
  {d2a2d1c3-830e-4ccd-a5d1-d5fb646886ea}, ! Handle
  8IN Concrete HW,                        ! Name
  MediumRough,                            ! Roughness
  0.2033,                                 ! Thickness {m}
  1.7296,                                 ! Conductivity {W/m-K}
  2243,                                   ! Density {kg/m3}
  837,                                    ! Specific Heat {J/kg-K}
  0.9,                                    ! Thermal Absorptance
  0.65,                                   ! Solar Absorptance
  0.65;                                   ! Visible Absorptance

OS:Material,
  {0655d280-d595-4995-a16e-3684bf5167a8}, ! Handle
  Wall Insulation [14],                   ! Name
  MediumRough,                            ! Roughness
  0.0905233,                              ! Thickness {m}
  0.0432,                                 ! Conductivity {W/m-K}
  91,                                     ! Density {kg/m3}
  837,                                    ! Specific Heat {J/kg-K}
  0.9,                                    ! Thermal Absorptance
  0.5,                                    ! Solar Absorptance
  0.5;                                    ! Visible Absorptance

OS:Material,
  {bac5ed37-373f-438b-b78c-818f80103d16}, ! Handle
  1/2IN Gypsum,                           ! Name
  Smooth,                                 ! Roughness
  0.01271,                                ! Thickness {m}
  0.16,                                   ! Conductivity {W/m-K}
  784.9,                                  ! Density {kg/m3}
  830,                                    ! Specific Heat {J/kg-K}
  0.9,                                    ! Thermal Absorptance
  0.92,                                   ! Solar Absorptance
  0.92;                                   ! Visible Absorptance

OS:ComponentCost:LineItem,
  {2552ac74-6899-47ea-8e12-d22cdf61c779}, ! Handle
  90.1-1999 Nonres B26 Ext Wall Mass,     ! Name
  ,                                       ! Type
  Construction,                           ! Line Item Type
  90.1-1999 Nonres B26 Ext Wall Mass,     ! Item Name
  ,                                       ! Object End Use Key
  ,                                       ! Quantity {dimensionless}
  70.253,                                 ! Material Cost {$}
  CostPerArea;                            ! Material Cost Units

OS:ComponentData,
  {0182e46c-6f76-4bf6-8c4e-52193dcc42b2}, ! Handle
  Component Data 1,                       ! Name
  {565f3b5f-0f2e-495f-ae54-9d077d647529}, ! UUID
  {1e247ab9-64e3-4412-a19e-d190d6cfa8e3}, ! Version UUID
  1363981157,                             ! Creation Timestamp
  1363981157,                             ! Version Timestamp
  {a641d0b4-79a5-4be7-b7ef-1ad1011a2901}, ! Name of Object 1
  {59e5d557-8e05-4c43-bb33-bd4e12ab0c50}, ! Name of Object 2
  {d2a2d1c3-830e-4ccd-a5d1-d5fb646886ea}, ! Name of Object 3
  {0655d280-d595-4995-a16e-3684bf5167a8}, ! Name of Object 4
  {bac5ed37-373f-438b-b78c-818f80103d16}, ! Name of Object 5
  {2552ac74-6899-47ea-8e12-d22cdf61c779}; ! Name of Object 6

