
OS:Version,
  {8fc94d89-6054-4bdc-af4a-19ee81f4b06f}, ! Handle
  0.9.3;                                  ! Version Identifier

OS:Construction,
  {492de575-779e-4487-8091-47c03e0dbaed}, ! Handle
  90.1-1999 Nonres B26 Ext Wall Mass,     ! Name
  ,                                       ! Surface Rendering Name
  {62f9f795-69e2-48cc-bbd0-56d3a66060aa}, ! Layer 1
  {b4090897-4f20-455f-b235-bc8773e8ee09}, ! Layer 2
  {3713fef1-0f4e-423c-a7f1-0221d44205cf}, ! Layer 3
  {e53bbb06-2d83-40bc-b010-c78ef4e6514b}; ! Layer 4

OS:Material,
  {62f9f795-69e2-48cc-bbd0-56d3a66060aa}, ! Handle
  1IN Stucco,                             ! Name
  Smooth,                                 ! Roughness
  0.0253,                                 ! Thickness {m}
  0.6918,                                 ! Conductivity {W/m-K}
  1858,                                   ! Density {kg/m3}
  837,                                    ! Specific Heat {J/kg-K}
  0.9,                                    ! Thermal Absorptance
  0.92,                                   ! Solar Absorptance
  0.92;                                   ! Visible Absorptance

OS:Material,
  {b4090897-4f20-455f-b235-bc8773e8ee09}, ! Handle
  8IN Concrete HW,                        ! Name
  MediumRough,                            ! Roughness
  0.2033,                                 ! Thickness {m}
  1.7296,                                 ! Conductivity {W/m-K}
  2243,                                   ! Density {kg/m3}
  837,                                    ! Specific Heat {J/kg-K}
  0.9,                                    ! Thermal Absorptance
  0.65,                                   ! Solar Absorptance
  0.65;                                   ! Visible Absorptance

OS:Material,
  {3713fef1-0f4e-423c-a7f1-0221d44205cf}, ! Handle
  Wall Insulation [14],                   ! Name
  MediumRough,                            ! Roughness
  0.0905233,                              ! Thickness {m}
  0.0432,                                 ! Conductivity {W/m-K}
  91,                                     ! Density {kg/m3}
  837,                                    ! Specific Heat {J/kg-K}
  0.9,                                    ! Thermal Absorptance
  0.5,                                    ! Solar Absorptance
  0.5;                                    ! Visible Absorptance

OS:Material,
  {e53bbb06-2d83-40bc-b010-c78ef4e6514b}, ! Handle
  1/2IN Gypsum,                           ! Name
  Smooth,                                 ! Roughness
  0.01271,                                ! Thickness {m}
  0.16,                                   ! Conductivity {W/m-K}
  784.9,                                  ! Density {kg/m3}
  830,                                    ! Specific Heat {J/kg-K}
  0.9,                                    ! Thermal Absorptance
  0.92,                                   ! Solar Absorptance
  0.92;                                   ! Visible Absorptance

OS:ComponentCost:LineItem,
  {297314cc-0bcc-4923-b32e-e1da855153ee}, ! Handle
  90.1-1999 Nonres B26 Ext Wall Mass,     ! Name
  ,                                       ! Type
  Construction,                           ! Line Item Type
  90.1-1999 Nonres B26 Ext Wall Mass,     ! Item Name
  ,                                       ! Object End Use Key
  ,                                       ! Quantity {dimensionless}
  70.253,                                 ! Material Cost {$}
  CostPerArea;                            ! Material Cost Units

