
OS:Version,
  {8a965b9b-ce8f-4c4c-a6e2-69ac7321400d}, ! Handle
  0.9.3;                                  ! Version Identifier

OS:Construction,
  {0ca12899-e61e-4526-8feb-543c10727336}, ! Handle
  90.1-2001 Nonres B6 Int Wall,           ! Name
  ,                                       ! Surface Rendering Name
  {e91dbeb5-f7bf-45fc-88bb-52eb8a1ab498}, ! Layer 1
  {e91dbeb5-f7bf-45fc-88bb-52eb8a1ab498}; ! Layer 2

OS:Material,
  {e91dbeb5-f7bf-45fc-88bb-52eb8a1ab498}, ! Handle
  GP01 1/2 GYPSUM,                        ! Name
  Smooth,                                 ! Roughness
  0.01271,                                ! Thickness {m}
  0.16,                                   ! Conductivity {W/m-K}
  800,                                    ! Density {kg/m3}
  1090,                                   ! Specific Heat {J/kg-K}
  0.9,                                    ! Thermal Absorptance
  0.7,                                    ! Solar Absorptance
  0.5;                                    ! Visible Absorptance

OS:Material,
  {51f05e26-6f54-4888-8a41-f47d085e4541}, ! Handle
  GP01 1/2 GYPSUM 1,                      ! Name
  Smooth,                                 ! Roughness
  0.01271,                                ! Thickness {m}
  0.16,                                   ! Conductivity {W/m-K}
  800,                                    ! Density {kg/m3}
  1090,                                   ! Specific Heat {J/kg-K}
  0.9,                                    ! Thermal Absorptance
  0.7,                                    ! Solar Absorptance
  0.5;                                    ! Visible Absorptance

OS:ComponentCost:LineItem,
  {f16d8ffd-29de-4b09-bd4b-641b01619929}, ! Handle
  90.1-2001 Nonres B6 Int Wall,           ! Name
  ,                                       ! Type
  Construction,                           ! Line Item Type
  90.1-2001 Nonres B6 Int Wall,           ! Item Name
  ,                                       ! Object End Use Key
  ,                                       ! Quantity {dimensionless}
  0,                                      ! Material Cost {$}
  CostPerArea;                            ! Material Cost Units

