
OS:Version,
  {e39cf63b-7fdd-4b9a-a120-3e1cbf675b13}, ! Handle
  0.9.3;                                  ! Version Identifier

OS:Material,
  {89d6d1ff-fcbc-4995-bc1d-be2ba3825563}, ! Handle
  Roof Insulation [15],                   ! Name
  MediumRough,                            ! Roughness
  0.123565,                               ! Thickness {m}
  0.049,                                  ! Conductivity {W/m-K}
  265,                                    ! Density {kg/m3}
  836.8,                                  ! Specific Heat {J/kg-K}
  0.9,                                    ! Thermal Absorptance
  0.7,                                    ! Solar Absorptance
  0.7;                                    ! Visible Absorptance

OS:Material,
  {b00911b3-2911-42d9-99e3-65616c6d7494}, ! Handle
  Metal Roofing,                          ! Name
  MediumSmooth,                           ! Roughness
  0.001524,                               ! Thickness {m}
  45.006,                                 ! Conductivity {W/m-K}
  7680,                                   ! Density {kg/m3}
  418.4,                                  ! Specific Heat {J/kg-K}
  0.9,                                    ! Thermal Absorptance
  0.7,                                    ! Solar Absorptance
  0.3;                                    ! Visible Absorptance

OS:ComponentCost:LineItem,
  {9e80bca8-bfe7-4e8d-ad3f-b8dab2c525be}, ! Handle
  90.1-2007 Res 2A Roof Metal Building,   ! Name
  ,                                       ! Type
  Construction,                           ! Line Item Type
  90.1-2007 Res 2A Roof Metal Building,   ! Item Name
  ,                                       ! Object End Use Key
  ,                                       ! Quantity {dimensionless}
  38.21,                                  ! Material Cost {$}
  CostPerArea;                            ! Material Cost Units

OS:Construction,
  {51a20895-aeb1-4550-ad5d-e2035f9a0d2c}, ! Handle
  90.1-2007 Res 2A Roof Metal Building,   ! Name
  ,                                       ! Surface Rendering Name
  {b00911b3-2911-42d9-99e3-65616c6d7494}, ! Layer 1
  {89d6d1ff-fcbc-4995-bc1d-be2ba3825563}; ! Layer 2

