
OS:Version,
  {8ab4cde3-b1df-40bd-9ccd-15f1d0d9f402}, ! Handle
  0.9.3;                                  ! Version Identifier

OS:Construction,
  {1e4defa5-752e-4cc2-91e7-59ea20fe371d}, ! Handle
  90.1-2007 Res 2A Roof Metal Building,   ! Name
  ,                                       ! Surface Rendering Name
  {9374be19-5544-4319-9530-6db0dbecab49}, ! Layer 1
  {9a3988cf-e91b-4262-a1f2-9c52d4dbbc1e}; ! Layer 2

OS:Material,
  {9374be19-5544-4319-9530-6db0dbecab49}, ! Handle
  Metal Roofing,                          ! Name
  MediumSmooth,                           ! Roughness
  0.001524,                               ! Thickness {m}
  45.006,                                 ! Conductivity {W/m-K}
  7680,                                   ! Density {kg/m3}
  418.4,                                  ! Specific Heat {J/kg-K}
  0.9,                                    ! Thermal Absorptance
  0.7,                                    ! Solar Absorptance
  0.3;                                    ! Visible Absorptance

OS:Material,
  {9a3988cf-e91b-4262-a1f2-9c52d4dbbc1e}, ! Handle
  Roof Insulation [15],                   ! Name
  MediumRough,                            ! Roughness
  0.123565,                               ! Thickness {m}
  0.049,                                  ! Conductivity {W/m-K}
  265,                                    ! Density {kg/m3}
  836.8,                                  ! Specific Heat {J/kg-K}
  0.9,                                    ! Thermal Absorptance
  0.7,                                    ! Solar Absorptance
  0.7;                                    ! Visible Absorptance

OS:ComponentCost:LineItem,
  {73da4df9-e0eb-477c-adba-0fdb1c7ddb70}, ! Handle
  90.1-2007 Res 2A Roof Metal Building,   ! Name
  ,                                       ! Type
  Construction,                           ! Line Item Type
  90.1-2007 Res 2A Roof Metal Building,   ! Item Name
  ,                                       ! Object End Use Key
  ,                                       ! Quantity {dimensionless}
  38.21,                                  ! Material Cost {$}
  CostPerArea;                            ! Material Cost Units

OS:ComponentData,
  {adad880d-b563-4e13-828a-f03221ad158e}, ! Handle
  Component Data 1,                       ! Name
  {39f543c9-33fe-44a9-bd93-99af8cdbc962}, ! UUID
  {52b0e152-1fa6-46a4-8848-f00d89564c42}, ! Version UUID
  1363981837,                             ! Creation Timestamp
  1363981837,                             ! Version Timestamp
  {1e4defa5-752e-4cc2-91e7-59ea20fe371d}, ! Name of Object 1
  {9374be19-5544-4319-9530-6db0dbecab49}, ! Name of Object 2
  {9a3988cf-e91b-4262-a1f2-9c52d4dbbc1e}, ! Name of Object 3
  {73da4df9-e0eb-477c-adba-0fdb1c7ddb70}; ! Name of Object 4

