
OS:Version,
  {c6ab1247-4032-489e-9abc-a06d9757ea61}, ! Handle
  0.9.3;                                  ! Version Identifier

OS:ComponentCost:LineItem,
  {3755ec02-7bbf-4b75-a6a0-06aca21dc1be}, ! Handle
  90.1-2001 Res B17 Ext Wall Mass,        ! Name
  ,                                       ! Type
  Construction,                           ! Line Item Type
  90.1-2001 Res B17 Ext Wall Mass,        ! Item Name
  ,                                       ! Object End Use Key
  ,                                       ! Quantity {dimensionless}
  65.826,                                 ! Material Cost {$}
  CostPerArea;                            ! Material Cost Units

OS:Material,
  {9f16340d-ee6c-4bfa-813e-231fb5fa09d1}, ! Handle
  8IN Concrete HW,                        ! Name
  MediumRough,                            ! Roughness
  0.2033,                                 ! Thickness {m}
  1.7296,                                 ! Conductivity {W/m-K}
  2243,                                   ! Density {kg/m3}
  837,                                    ! Specific Heat {J/kg-K}
  0.9,                                    ! Thermal Absorptance
  0.65,                                   ! Solar Absorptance
  0.65;                                   ! Visible Absorptance

OS:Material,
  {98f4fa52-0930-4a02-9935-a0a62725adea}, ! Handle
  1IN Stucco,                             ! Name
  Smooth,                                 ! Roughness
  0.0253,                                 ! Thickness {m}
  0.6918,                                 ! Conductivity {W/m-K}
  1858,                                   ! Density {kg/m3}
  837,                                    ! Specific Heat {J/kg-K}
  0.9,                                    ! Thermal Absorptance
  0.92,                                   ! Solar Absorptance
  0.92;                                   ! Visible Absorptance

OS:Construction,
  {a93d085f-f6f3-4bd2-bfc2-a8c6aec1677c}, ! Handle
  90.1-2001 Res B17 Ext Wall Mass,        ! Name
  ,                                       ! Surface Rendering Name
  {98f4fa52-0930-4a02-9935-a0a62725adea}, ! Layer 1
  {9f16340d-ee6c-4bfa-813e-231fb5fa09d1}, ! Layer 2
  {d0d869c9-df11-4941-baa6-8db687b6f0c7}, ! Layer 3
  {c6ed2498-355d-4786-b6b7-5245bfb096da}; ! Layer 4

OS:Material,
  {d0d869c9-df11-4941-baa6-8db687b6f0c7}, ! Handle
  Wall Insulation [8],                    ! Name
  MediumRough,                            ! Roughness
  0.067929,                               ! Thickness {m}
  0.0432,                                 ! Conductivity {W/m-K}
  91,                                     ! Density {kg/m3}
  837,                                    ! Specific Heat {J/kg-K}
  0.9,                                    ! Thermal Absorptance
  0.5,                                    ! Solar Absorptance
  0.5;                                    ! Visible Absorptance

OS:Material,
  {c6ed2498-355d-4786-b6b7-5245bfb096da}, ! Handle
  1/2IN Gypsum,                           ! Name
  Smooth,                                 ! Roughness
  0.01271,                                ! Thickness {m}
  0.16,                                   ! Conductivity {W/m-K}
  784.9,                                  ! Density {kg/m3}
  830,                                    ! Specific Heat {J/kg-K}
  0.9,                                    ! Thermal Absorptance
  0.92,                                   ! Solar Absorptance
  0.92;                                   ! Visible Absorptance

