
OS:Version,
  {6f573ae6-3dea-4f3f-a423-4a6a14af2a97}, ! Handle
  0.9.3;                                  ! Version Identifier

OS:Construction,
  {4977935b-5ab3-4953-b07d-f9e49fdff1d9}, ! Handle
  90.1-2001 Res B17 Ext Wall Mass,        ! Name
  ,                                       ! Surface Rendering Name
  {c7912fcf-cf6d-4876-8eeb-0bc4b1de70b3}, ! Layer 1
  {94d13298-2d62-4be5-8da7-1605244b85f4}, ! Layer 2
  {2a2ff86b-ffaa-4306-9f89-672156c9f5d5}, ! Layer 3
  {899f88e6-6269-4699-b21d-54a8a2661cab}; ! Layer 4

OS:Material,
  {c7912fcf-cf6d-4876-8eeb-0bc4b1de70b3}, ! Handle
  1IN Stucco,                             ! Name
  Smooth,                                 ! Roughness
  0.0253,                                 ! Thickness {m}
  0.6918,                                 ! Conductivity {W/m-K}
  1858,                                   ! Density {kg/m3}
  837,                                    ! Specific Heat {J/kg-K}
  0.9,                                    ! Thermal Absorptance
  0.92,                                   ! Solar Absorptance
  0.92;                                   ! Visible Absorptance

OS:Material,
  {94d13298-2d62-4be5-8da7-1605244b85f4}, ! Handle
  8IN Concrete HW,                        ! Name
  MediumRough,                            ! Roughness
  0.2033,                                 ! Thickness {m}
  1.7296,                                 ! Conductivity {W/m-K}
  2243,                                   ! Density {kg/m3}
  837,                                    ! Specific Heat {J/kg-K}
  0.9,                                    ! Thermal Absorptance
  0.65,                                   ! Solar Absorptance
  0.65;                                   ! Visible Absorptance

OS:Material,
  {2a2ff86b-ffaa-4306-9f89-672156c9f5d5}, ! Handle
  Wall Insulation [8],                    ! Name
  MediumRough,                            ! Roughness
  0.067929,                               ! Thickness {m}
  0.0432,                                 ! Conductivity {W/m-K}
  91,                                     ! Density {kg/m3}
  837,                                    ! Specific Heat {J/kg-K}
  0.9,                                    ! Thermal Absorptance
  0.5,                                    ! Solar Absorptance
  0.5;                                    ! Visible Absorptance

OS:Material,
  {899f88e6-6269-4699-b21d-54a8a2661cab}, ! Handle
  1/2IN Gypsum,                           ! Name
  Smooth,                                 ! Roughness
  0.01271,                                ! Thickness {m}
  0.16,                                   ! Conductivity {W/m-K}
  784.9,                                  ! Density {kg/m3}
  830,                                    ! Specific Heat {J/kg-K}
  0.9,                                    ! Thermal Absorptance
  0.92,                                   ! Solar Absorptance
  0.92;                                   ! Visible Absorptance

OS:ComponentCost:LineItem,
  {77b5f0be-503f-476b-bd1b-aeaeca1278a9}, ! Handle
  90.1-2001 Res B17 Ext Wall Mass,        ! Name
  ,                                       ! Type
  Construction,                           ! Line Item Type
  90.1-2001 Res B17 Ext Wall Mass,        ! Item Name
  ,                                       ! Object End Use Key
  ,                                       ! Quantity {dimensionless}
  65.826,                                 ! Material Cost {$}
  CostPerArea;                            ! Material Cost Units

OS:ComponentData,
  {67bf9d7e-a68b-459d-8e57-c1ce5110de13}, ! Handle
  Component Data 1,                       ! Name
  {b5f42fcf-8476-4281-b658-b5e407cae3e4}, ! UUID
  {e2aa0baa-6215-4b11-9ed6-0e4beb0217bd}, ! Version UUID
  1363981550,                             ! Creation Timestamp
  1363981550,                             ! Version Timestamp
  {4977935b-5ab3-4953-b07d-f9e49fdff1d9}, ! Name of Object 1
  {c7912fcf-cf6d-4876-8eeb-0bc4b1de70b3}, ! Name of Object 2
  {94d13298-2d62-4be5-8da7-1605244b85f4}, ! Name of Object 3
  {2a2ff86b-ffaa-4306-9f89-672156c9f5d5}, ! Name of Object 4
  {899f88e6-6269-4699-b21d-54a8a2661cab}, ! Name of Object 5
  {77b5f0be-503f-476b-bd1b-aeaeca1278a9}; ! Name of Object 6

