
OS:Version,
  {e3654c82-daa7-486c-a838-a63c28b0a620}, ! Handle
  0.9.3;                                  ! Version Identifier

OS:ComponentCost:LineItem,
  {34d77c1e-1fed-4cc3-a4bf-f70c60b3c675}, ! Handle
  90.1-2001 Res B21 Int Wall,             ! Name
  ,                                       ! Type
  Construction,                           ! Line Item Type
  90.1-2001 Res B21 Int Wall,             ! Item Name
  ,                                       ! Object End Use Key
  ,                                       ! Quantity {dimensionless}
  0,                                      ! Material Cost {$}
  CostPerArea;                            ! Material Cost Units

OS:Construction,
  {8714b5f5-e313-4c66-884e-a7b0427c2979}, ! Handle
  90.1-2001 Res B21 Int Wall,             ! Name
  ,                                       ! Surface Rendering Name
  {e5ced4ab-b15a-4b75-a2b6-2d0bb124e586}, ! Layer 1
  {e5ced4ab-b15a-4b75-a2b6-2d0bb124e586}; ! Layer 2

OS:Material,
  {e5ced4ab-b15a-4b75-a2b6-2d0bb124e586}, ! Handle
  GP01 1/2 GYPSUM,                        ! Name
  Smooth,                                 ! Roughness
  0.01271,                                ! Thickness {m}
  0.16,                                   ! Conductivity {W/m-K}
  800,                                    ! Density {kg/m3}
  1090,                                   ! Specific Heat {J/kg-K}
  0.9,                                    ! Thermal Absorptance
  0.7,                                    ! Solar Absorptance
  0.5;                                    ! Visible Absorptance

OS:Material,
  {94cec3fd-c134-46d0-a841-e6c0bcf431c9}, ! Handle
  GP01 1/2 GYPSUM 1,                      ! Name
  Smooth,                                 ! Roughness
  0.01271,                                ! Thickness {m}
  0.16,                                   ! Conductivity {W/m-K}
  800,                                    ! Density {kg/m3}
  1090,                                   ! Specific Heat {J/kg-K}
  0.9,                                    ! Thermal Absorptance
  0.7,                                    ! Solar Absorptance
  0.5;                                    ! Visible Absorptance

