
OS:Version,
  {dc70b1c5-42d0-4f95-82d4-c2a618162460}, ! Handle
  0.9.3;                                  ! Version Identifier

OS:Construction,
  {9a41a063-3849-445b-a03a-e04be6f09884}, ! Handle
  Title 24-2008 Nonres 11 Roof IEAD,      ! Name
  ,                                       ! Surface Rendering Name
  {6a40b40f-c968-48fa-85ae-3504f3e4cd3d}, ! Layer 1
  {2e7d0db4-2bbf-4ac6-8936-1c65225a092e}, ! Layer 2
  {8c056e0f-e081-4a82-abf0-2a6999c827ff}; ! Layer 3

OS:Material,
  {6a40b40f-c968-48fa-85ae-3504f3e4cd3d}, ! Handle
  Roof Membrane [2],                      ! Name
  VeryRough,                              ! Roughness
  0.0095,                                 ! Thickness {m}
  0.16,                                   ! Conductivity {W/m-K}
  1121.29,                                ! Density {kg/m3}
  1460,                                   ! Specific Heat {J/kg-K}
  0.9,                                    ! Thermal Absorptance
  0.7,                                    ! Solar Absorptance
  0.85;                                   ! Visible Absorptance

OS:Material,
  {2e7d0db4-2bbf-4ac6-8936-1c65225a092e}, ! Handle
  Roof Insulation [31],                   ! Name
  MediumRough,                            ! Roughness
  0.209546,                               ! Thickness {m}
  0.049,                                  ! Conductivity {W/m-K}
  265,                                    ! Density {kg/m3}
  836.8,                                  ! Specific Heat {J/kg-K}
  0.9,                                    ! Thermal Absorptance
  0.7,                                    ! Solar Absorptance
  0.7;                                    ! Visible Absorptance

OS:Material,
  {8c056e0f-e081-4a82-abf0-2a6999c827ff}, ! Handle
  Metal Decking,                          ! Name
  MediumSmooth,                           ! Roughness
  0.001524,                               ! Thickness {m}
  45.006,                                 ! Conductivity {W/m-K}
  7680,                                   ! Density {kg/m3}
  418.4,                                  ! Specific Heat {J/kg-K}
  0.9,                                    ! Thermal Absorptance
  0.7,                                    ! Solar Absorptance
  0.3;                                    ! Visible Absorptance

OS:ComponentCost:LineItem,
  {3fb865f8-c6dd-4cbf-8093-65efdd85c5f5}, ! Handle
  Title 24-2008 Nonres 11 Roof IEAD,      ! Name
  ,                                       ! Type
  Construction,                           ! Line Item Type
  Title 24-2008 Nonres 11 Roof IEAD,      ! Item Name
  ,                                       ! Object End Use Key
  ,                                       ! Quantity {dimensionless}
  56.579,                                 ! Material Cost {$}
  CostPerArea;                            ! Material Cost Units

