
! 
OS:Version,
  {9c37d538-db0d-4a47-9850-5bede7e76bd5}, !- Handle
  1.13.0;                                 !- Version Identifier


! {"nombreProductoCorto": "CLIMALIT PLUS con COOL LITE ST 108 F2 6 (16 argon90%) 44.2", "codigoEAN": "", "handle": "c46e6c34-71c5-4b53-b69e-5d8d2ffcbb78", "g": 0.09, "tV": 0.0009, "u": 1.4, "nombreProducto": "CLIMALIT PLUS con COOL LITE ST 108 F2 6 (16 argon90%) 44.2\nU:1.4 W/m2K - g:0.09 - Tv: 0.00"}
OS:WindowMaterial:SimpleGlazingSystem,
  {c46e6c34-71c5-4b53-b69e-5d8d2ffcbb78}, !- Handle
  CLIMALIT PLUS con COOL LITE ST 108 F2 6 (16 argon90%) 44.2, !- Name
  1.4,                                    !- U-Factor {W/m2-K}
  0.09,                                    !- Solar Heat Gain Coefficient
  0.0009;                                    !- Visible Transmittance     
  
  
OS:Construction,
  {43a0ea52-8f61-4c7f-9460-bf6558cdc219}, !- Handle
  CLIMALIT PLUS con COOL LITE ST 108 F2 6 (16 argon90%) 44.2,                         !- Name
  ,                                       !- Surface Rendering Name
  {c46e6c34-71c5-4b53-b69e-5d8d2ffcbb78}; !- Layer 1  

