
OS:Version,
  {694ab794-c62d-4d18-9dd9-965a8cbea378}, ! Handle
  0.9.3;                                  ! Version Identifier

OS:Construction,
  {10aeeef8-77a7-4ef6-b5d1-331443568b56}, ! Handle
  90.1-2004 Nonres 3A Attic Floor,        ! Name
  ,                                       ! Surface Rendering Name
  {5af1915c-03c0-498e-8d1d-c4cdbcf4a928}, ! Layer 1
  {00be0d54-4379-45e0-bad2-6d35bfd67bf2}, ! Layer 2
  {a8332970-c24c-4424-b2e9-b233e97584e7}; ! Layer 3

OS:Material,
  {5af1915c-03c0-498e-8d1d-c4cdbcf4a928}, ! Handle
  1/2IN Gypsum Top,                       ! Name
  Smooth,                                 ! Roughness
  0.01271,                                ! Thickness {m}
  0.16,                                   ! Conductivity {W/m-K}
  784.9,                                  ! Density {kg/m3}
  830,                                    ! Specific Heat {J/kg-K}
  0.9,                                    ! Thermal Absorptance
  0.92,                                   ! Solar Absorptance
  0.92;                                   ! Visible Absorptance

OS:Material,
  {00be0d54-4379-45e0-bad2-6d35bfd67bf2}, ! Handle
  AtticFloor Insulation,                  ! Name
  MediumRough,                            ! Roughness
  0.237853,                               ! Thickness {m}
  0.049,                                  ! Conductivity {W/m-K}
  265,                                    ! Density {kg/m3}
  836.8,                                  ! Specific Heat {J/kg-K}
  0.9,                                    ! Thermal Absorptance
  0.7,                                    ! Solar Absorptance
  0.7;                                    ! Visible Absorptance

OS:Material,
  {a8332970-c24c-4424-b2e9-b233e97584e7}, ! Handle
  1/2IN Gypsum Bottom,                    ! Name
  Smooth,                                 ! Roughness
  0.01271,                                ! Thickness {m}
  0.16,                                   ! Conductivity {W/m-K}
  784.9,                                  ! Density {kg/m3}
  830,                                    ! Specific Heat {J/kg-K}
  0.9,                                    ! Thermal Absorptance
  0.92,                                   ! Solar Absorptance
  0.92;                                   ! Visible Absorptance

OS:ComponentCost:LineItem,
  {343800e5-6902-4dd9-bdeb-cffd0cd12a89}, ! Handle
  90.1-2004 Nonres 3A Attic Floor,        ! Name
  ,                                       ! Type
  Construction,                           ! Line Item Type
  90.1-2004 Nonres 3A Attic Floor,        ! Item Name
  ,                                       ! Object End Use Key
  ,                                       ! Quantity {dimensionless}
  33.596,                                 ! Material Cost {$}
  CostPerArea;                            ! Material Cost Units

OS:ComponentData,
  {e7d4c074-6ffa-44bc-bdc4-6e7eaff855a1}, ! Handle
  Component Data 1,                       ! Name
  {38f09dcf-c6fa-4fec-bcf5-110fbffe8213}, ! UUID
  {33b86498-d883-475f-9adc-b8f05a034a25}, ! Version UUID
  1363981645,                             ! Creation Timestamp
  1363981645,                             ! Version Timestamp
  {10aeeef8-77a7-4ef6-b5d1-331443568b56}, ! Name of Object 1
  {5af1915c-03c0-498e-8d1d-c4cdbcf4a928}, ! Name of Object 2
  {00be0d54-4379-45e0-bad2-6d35bfd67bf2}, ! Name of Object 3
  {a8332970-c24c-4424-b2e9-b233e97584e7}, ! Name of Object 4
  {343800e5-6902-4dd9-bdeb-cffd0cd12a89}; ! Name of Object 5

