
OS:Version,
  {26a44c76-e8cf-4d88-ad31-b9a08160ac87}, ! Handle
  0.9.3;                                  ! Version Identifier

OS:ComponentCost:LineItem,
  {af68598e-c036-4d0f-aaf6-30e999d1cdd2}, ! Handle
  90.1-2004 Nonres 3A Attic Floor,        ! Name
  ,                                       ! Type
  Construction,                           ! Line Item Type
  90.1-2004 Nonres 3A Attic Floor,        ! Item Name
  ,                                       ! Object End Use Key
  ,                                       ! Quantity {dimensionless}
  33.596,                                 ! Material Cost {$}
  CostPerArea;                            ! Material Cost Units

OS:Construction,
  {5b1c8e23-46d7-4c7b-920f-1153cdd33bf7}, ! Handle
  90.1-2004 Nonres 3A Attic Floor,        ! Name
  ,                                       ! Surface Rendering Name
  {57bbab62-a1d3-4018-8d76-1a05f0ee21a3}, ! Layer 1
  {5baf2656-58b3-4548-8856-70b7bc01039c}, ! Layer 2
  {83dfba73-bcc4-4778-be93-87bdfd2a3d85}; ! Layer 3

OS:Material,
  {57bbab62-a1d3-4018-8d76-1a05f0ee21a3}, ! Handle
  1/2IN Gypsum Top,                       ! Name
  Smooth,                                 ! Roughness
  0.01271,                                ! Thickness {m}
  0.16,                                   ! Conductivity {W/m-K}
  784.9,                                  ! Density {kg/m3}
  830,                                    ! Specific Heat {J/kg-K}
  0.9,                                    ! Thermal Absorptance
  0.92,                                   ! Solar Absorptance
  0.92;                                   ! Visible Absorptance

OS:Material,
  {5baf2656-58b3-4548-8856-70b7bc01039c}, ! Handle
  AtticFloor Insulation,                  ! Name
  MediumRough,                            ! Roughness
  0.237853,                               ! Thickness {m}
  0.049,                                  ! Conductivity {W/m-K}
  265,                                    ! Density {kg/m3}
  836.8,                                  ! Specific Heat {J/kg-K}
  0.9,                                    ! Thermal Absorptance
  0.7,                                    ! Solar Absorptance
  0.7;                                    ! Visible Absorptance

OS:Material,
  {83dfba73-bcc4-4778-be93-87bdfd2a3d85}, ! Handle
  1/2IN Gypsum Bottom,                    ! Name
  Smooth,                                 ! Roughness
  0.01271,                                ! Thickness {m}
  0.16,                                   ! Conductivity {W/m-K}
  784.9,                                  ! Density {kg/m3}
  830,                                    ! Specific Heat {J/kg-K}
  0.9,                                    ! Thermal Absorptance
  0.92,                                   ! Solar Absorptance
  0.92;                                   ! Visible Absorptance

