
OS:Version,
  {b2a420aa-7d3b-4739-a4b9-7dc0c5ed33d4}, ! Handle
  0.9.3;                                  ! Version Identifier

OS:ComponentCost:LineItem,
  {1176aada-a4b2-48ff-9273-a144bac31639}, ! Handle
  90.1 Windows Window Fixed 2646 Vnl-HptMpr-Ins-ClrSue, ! Name
  ,                                       ! Type
  Construction,                           ! Line Item Type
  90.1 Windows Window Fixed 2646 Vnl-HptMpr-Ins-ClrSue, ! Item Name
  ,                                       ! Object End Use Key
  ,                                       ! Quantity {dimensionless}
  0,                                      ! Material Cost {$}
  CostPerArea;                            ! Material Cost Units

OS:WindowMaterial:Glazing,
  {02ea13cf-4968-469a-a9ef-d87986176a62}, ! Handle
  Theoretical Glass [558],                ! Name
  SpectralAverage,                        ! Optical Data Type
  ,                                       ! Window Glass Spectral Data Set Name
  0.003,                                  ! Thickness {m}
  0.157238,                               ! Solar Transmittance at Normal Incidence
  0.792762,                               ! Front Side Solar Reflectance at Normal Incidence
  0.792762,                               ! Back Side Solar Reflectance at Normal Incidence
  0.291385,                               ! Visible Transmittance at Normal Incidence
  0.658615,                               ! Front Side Visible Reflectance at Normal Incidence
  0.658615,                               ! Back Side Visible Reflectance at Normal Incidence
  0,                                      ! Infrared Transmittance at Normal Incidence
  0.9,                                    ! Front Side Infrared Hemispherical Emissivity
  0.9,                                    ! Back Side Infrared Hemispherical Emissivity
  0.00776617;                             ! Conductivity {W/m-K}

OS:Construction,
  {5d0c751c-1bc2-4c18-8e59-f83f7ce4bad3}, ! Handle
  90.1 Windows Window Fixed 2646 Vnl-HptMpr-Ins-ClrSue, ! Name
  ,                                       ! Surface Rendering Name
  {02ea13cf-4968-469a-a9ef-d87986176a62}; ! Layer 1

