
OS:Version,
  {7805dbcc-caf7-4da5-b8bf-8693b26b4ce6}, ! Handle
  0.9.3;                                  ! Version Identifier

OS:Material:NoMass,
  {13d57730-9703-4b2a-af19-968565d43682}, ! Handle
  MAT-SHEATH,                             ! Name
  Rough,                                  ! Roughness
  0.36256,                                ! Thermal Resistance {m2-K/W}
  0.9,                                    ! Thermal Absorptance
  0.7,                                    ! Solar Absorptance
  0.7;                                    ! Visible Absorptance

OS:Material,
  {f38177cc-8131-4d26-8709-313a7230816a}, ! Handle
  Wall Insulation [10],                   ! Name
  MediumRough,                            ! Roughness
  0.0971136,                              ! Thickness {m}
  0.045,                                  ! Conductivity {W/m-K}
  265,                                    ! Density {kg/m3}
  836.8,                                  ! Specific Heat {J/kg-K}
  0.9,                                    ! Thermal Absorptance
  0.7,                                    ! Solar Absorptance
  0.7;                                    ! Visible Absorptance

OS:ComponentCost:LineItem,
  {fdea0219-e8a5-46b7-9d92-85aec3ef2b49}, ! Handle
  90.1-2007 Res 3A Ext Wall Steel-Framed, ! Name
  ,                                       ! Type
  Construction,                           ! Line Item Type
  90.1-2007 Res 3A Ext Wall Steel-Framed, ! Item Name
  ,                                       ! Object End Use Key
  ,                                       ! Quantity {dimensionless}
  94.657,                                 ! Material Cost {$}
  CostPerArea;                            ! Material Cost Units

OS:Material,
  {c9f6123b-4ffe-44b6-8232-4543aebd369f}, ! Handle
  1/2IN Gypsum,                           ! Name
  Smooth,                                 ! Roughness
  0.01271,                                ! Thickness {m}
  0.16,                                   ! Conductivity {W/m-K}
  784.9,                                  ! Density {kg/m3}
  830,                                    ! Specific Heat {J/kg-K}
  0.9,                                    ! Thermal Absorptance
  0.92,                                   ! Solar Absorptance
  0.92;                                   ! Visible Absorptance

OS:Construction,
  {959ca67a-e120-4d6e-9503-d8a3f9dea2c1}, ! Handle
  90.1-2007 Res 3A Ext Wall Steel-Framed, ! Name
  ,                                       ! Surface Rendering Name
  {13d57730-9703-4b2a-af19-968565d43682}, ! Layer 1
  {f38177cc-8131-4d26-8709-313a7230816a}, ! Layer 2
  {c9f6123b-4ffe-44b6-8232-4543aebd369f}; ! Layer 3

