
OS:Version,
  {63a4d0dd-b633-41d9-89c6-7b76ba837def}, ! Handle
  0.9.3;                                  ! Version Identifier

OS:ComponentCost:LineItem,
  {d7196edc-4b72-4585-af8d-d276c6b8027d}, ! Handle
  90.1-2004 Res 1A Ext Wall Mass,         ! Name
  ,                                       ! Type
  Construction,                           ! Line Item Type
  90.1-2004 Res 1A Ext Wall Mass,         ! Item Name
  ,                                       ! Object End Use Key
  ,                                       ! Quantity {dimensionless}
  58.897,                                 ! Material Cost {$}
  CostPerArea;                            ! Material Cost Units

OS:Material,
  {5c1e063d-2c76-4254-8551-705f1e7fa3c0}, ! Handle
  1IN Stucco,                             ! Name
  Smooth,                                 ! Roughness
  0.0253,                                 ! Thickness {m}
  0.6918,                                 ! Conductivity {W/m-K}
  1858,                                   ! Density {kg/m3}
  837,                                    ! Specific Heat {J/kg-K}
  0.9,                                    ! Thermal Absorptance
  0.92,                                   ! Solar Absorptance
  0.92;                                   ! Visible Absorptance

OS:Material,
  {db935ad6-0b51-4523-969c-12b2880546e7}, ! Handle
  Wall Insulation [4],                    ! Name
  MediumRough,                            ! Roughness
  0.0338606,                              ! Thickness {m}
  0.0432,                                 ! Conductivity {W/m-K}
  91,                                     ! Density {kg/m3}
  837,                                    ! Specific Heat {J/kg-K}
  0.9,                                    ! Thermal Absorptance
  0.5,                                    ! Solar Absorptance
  0.5;                                    ! Visible Absorptance

OS:Construction,
  {9886f262-40f4-4848-8f86-875f39e0db39}, ! Handle
  90.1-2004 Res 1A Ext Wall Mass,         ! Name
  ,                                       ! Surface Rendering Name
  {5c1e063d-2c76-4254-8551-705f1e7fa3c0}, ! Layer 1
  {56c83f5b-34bd-4e24-86a1-8356a2976c35}, ! Layer 2
  {db935ad6-0b51-4523-969c-12b2880546e7}, ! Layer 3
  {19d34a5d-1005-490f-a957-779e889b285a}; ! Layer 4

OS:Material,
  {56c83f5b-34bd-4e24-86a1-8356a2976c35}, ! Handle
  8IN Concrete HW,                        ! Name
  MediumRough,                            ! Roughness
  0.2033,                                 ! Thickness {m}
  1.7296,                                 ! Conductivity {W/m-K}
  2243,                                   ! Density {kg/m3}
  837,                                    ! Specific Heat {J/kg-K}
  0.9,                                    ! Thermal Absorptance
  0.65,                                   ! Solar Absorptance
  0.65;                                   ! Visible Absorptance

OS:Material,
  {19d34a5d-1005-490f-a957-779e889b285a}, ! Handle
  1/2IN Gypsum,                           ! Name
  Smooth,                                 ! Roughness
  0.01271,                                ! Thickness {m}
  0.16,                                   ! Conductivity {W/m-K}
  784.9,                                  ! Density {kg/m3}
  830,                                    ! Specific Heat {J/kg-K}
  0.9,                                    ! Thermal Absorptance
  0.92,                                   ! Solar Absorptance
  0.92;                                   ! Visible Absorptance

