
OS:Version,
  {3fadcaf5-c7f9-48eb-b9d7-a394afb43984}, ! Handle
  0.9.3;                                  ! Version Identifier

OS:Construction,
  {24efc0e0-bc36-4697-aff3-f9a4a86eeb35}, ! Handle
  90.1-2007 Nonres 6B Roof Metal Building, ! Name
  ,                                       ! Surface Rendering Name
  {92ac630b-acc2-4e7e-a04d-3c0d499c5bf0}, ! Layer 1
  {e9a1207b-fe6d-4c2a-8511-0d6de22b111a}; ! Layer 2

OS:Material,
  {92ac630b-acc2-4e7e-a04d-3c0d499c5bf0}, ! Handle
  Metal Roofing,                          ! Name
  MediumSmooth,                           ! Roughness
  0.001524,                               ! Thickness {m}
  45.006,                                 ! Conductivity {W/m-K}
  7680,                                   ! Density {kg/m3}
  418.4,                                  ! Specific Heat {J/kg-K}
  0.9,                                    ! Thermal Absorptance
  0.7,                                    ! Solar Absorptance
  0.3;                                    ! Visible Absorptance

OS:Material,
  {e9a1207b-fe6d-4c2a-8511-0d6de22b111a}, ! Handle
  Roof Insulation [15],                   ! Name
  MediumRough,                            ! Roughness
  0.123565,                               ! Thickness {m}
  0.049,                                  ! Conductivity {W/m-K}
  265,                                    ! Density {kg/m3}
  836.8,                                  ! Specific Heat {J/kg-K}
  0.9,                                    ! Thermal Absorptance
  0.7,                                    ! Solar Absorptance
  0.7;                                    ! Visible Absorptance

OS:ComponentCost:LineItem,
  {ffc7c297-9a49-429e-94df-309bcde7d1e9}, ! Handle
  90.1-2007 Nonres 6B Roof Metal Building, ! Name
  ,                                       ! Type
  Construction,                           ! Line Item Type
  90.1-2007 Nonres 6B Roof Metal Building, ! Item Name
  ,                                       ! Object End Use Key
  ,                                       ! Quantity {dimensionless}
  38.21,                                  ! Material Cost {$}
  CostPerArea;                            ! Material Cost Units

OS:ComponentData,
  {bca3f419-03d5-41a7-8166-183cc9cd9bd0}, ! Handle
  Component Data 1,                       ! Name
  {60d72688-a003-4b52-91c9-bc5db5d3ca9a}, ! UUID
  {3adf85d6-888b-44a2-a381-77b27f757d05}, ! Version UUID
  1363981812,                             ! Creation Timestamp
  1363981812,                             ! Version Timestamp
  {24efc0e0-bc36-4697-aff3-f9a4a86eeb35}, ! Name of Object 1
  {92ac630b-acc2-4e7e-a04d-3c0d499c5bf0}, ! Name of Object 2
  {e9a1207b-fe6d-4c2a-8511-0d6de22b111a}, ! Name of Object 3
  {ffc7c297-9a49-429e-94df-309bcde7d1e9}; ! Name of Object 4

