
OS:Version,
  {5136ae69-8ed5-43bb-b424-7ba2fc236348}, ! Handle
  0.9.3;                                  ! Version Identifier

OS:Material,
  {8c396c3a-b078-4407-b925-367b7002cff3}, ! Handle
  Metal Roofing,                          ! Name
  MediumSmooth,                           ! Roughness
  0.001524,                               ! Thickness {m}
  45.006,                                 ! Conductivity {W/m-K}
  7680,                                   ! Density {kg/m3}
  418.4,                                  ! Specific Heat {J/kg-K}
  0.9,                                    ! Thermal Absorptance
  0.7,                                    ! Solar Absorptance
  0.3;                                    ! Visible Absorptance

OS:Material,
  {2da8a237-e324-4f9d-adf3-de555270ede6}, ! Handle
  Roof Insulation [15],                   ! Name
  MediumRough,                            ! Roughness
  0.123565,                               ! Thickness {m}
  0.049,                                  ! Conductivity {W/m-K}
  265,                                    ! Density {kg/m3}
  836.8,                                  ! Specific Heat {J/kg-K}
  0.9,                                    ! Thermal Absorptance
  0.7,                                    ! Solar Absorptance
  0.7;                                    ! Visible Absorptance

OS:ComponentCost:LineItem,
  {9994f25e-03fc-40b7-9d62-e05612d6cc2c}, ! Handle
  90.1-2007 Nonres 6B Roof Metal Building, ! Name
  ,                                       ! Type
  Construction,                           ! Line Item Type
  90.1-2007 Nonres 6B Roof Metal Building, ! Item Name
  ,                                       ! Object End Use Key
  ,                                       ! Quantity {dimensionless}
  38.21,                                  ! Material Cost {$}
  CostPerArea;                            ! Material Cost Units

OS:Construction,
  {def1ca65-aa09-4e0d-80f2-af8670fa9b1d}, ! Handle
  90.1-2007 Nonres 6B Roof Metal Building, ! Name
  ,                                       ! Surface Rendering Name
  {8c396c3a-b078-4407-b925-367b7002cff3}, ! Layer 1
  {2da8a237-e324-4f9d-adf3-de555270ede6}; ! Layer 2

