
OS:Version,
  {fd001fc3-97fe-4fd6-bb67-4f4fc6f4f799}, ! Handle
  0.9.3;                                  ! Version Identifier

OS:Construction,
  {780166b0-9eba-4c76-9b1a-9ce110006ed0}, ! Handle
  Title 24-2008 Nonres 10 Int Wall,       ! Name
  ,                                       ! Surface Rendering Name
  {a8e9ab8a-c44c-4065-b009-353d20fccee7}, ! Layer 1
  {a8e9ab8a-c44c-4065-b009-353d20fccee7}; ! Layer 2

OS:Material,
  {a8e9ab8a-c44c-4065-b009-353d20fccee7}, ! Handle
  GP01 1/2 GYPSUM,                        ! Name
  Smooth,                                 ! Roughness
  0.01271,                                ! Thickness {m}
  0.16,                                   ! Conductivity {W/m-K}
  800,                                    ! Density {kg/m3}
  1090,                                   ! Specific Heat {J/kg-K}
  0.9,                                    ! Thermal Absorptance
  0.7,                                    ! Solar Absorptance
  0.5;                                    ! Visible Absorptance

OS:ComponentCost:LineItem,
  {3dac2439-f1e1-433a-aaf1-83acd8c4e5f7}, ! Handle
  Title 24-2008 Nonres 10 Int Wall,       ! Name
  ,                                       ! Type
  Construction,                           ! Line Item Type
  Title 24-2008 Nonres 10 Int Wall,       ! Item Name
  ,                                       ! Object End Use Key
  ,                                       ! Quantity {dimensionless}
  0,                                      ! Material Cost {$}
  CostPerArea;                            ! Material Cost Units

OS:ComponentData,
  {dd739f45-8e8d-4196-99a0-fb2b118aef7d}, ! Handle
  Component Data 1,                       ! Name
  {c66df7ed-afb1-4b2c-8ddc-975eb468db0a}, ! UUID
  {9a2ea749-2d2d-4cb9-92ee-98f5bd3f1d6e}, ! Version UUID
  1363982059,                             ! Creation Timestamp
  1363982059,                             ! Version Timestamp
  {780166b0-9eba-4c76-9b1a-9ce110006ed0}, ! Name of Object 1
  {a8e9ab8a-c44c-4065-b009-353d20fccee7}, ! Name of Object 2
  {3dac2439-f1e1-433a-aaf1-83acd8c4e5f7}; ! Name of Object 3

