
OS:Version,
  {8ea525bc-7cdd-48fb-ab07-d3f06d83d9fd}, ! Handle
  0.9.3;                                  ! Version Identifier

OS:Material,
  {6ff206e8-77b1-4537-81f5-0cb898512369}, ! Handle
  MAT-CC05 8 HW CONCRETE,                 ! Name
  Rough,                                  ! Roughness
  0.20321,                                ! Thickness {m}
  1.311,                                  ! Conductivity {W/m-K}
  2240,                                   ! Density {kg/m3}
  836.8,                                  ! Specific Heat {J/kg-K}
  0.9,                                    ! Thermal Absorptance
  0.7,                                    ! Solar Absorptance
  0.7;                                    ! Visible Absorptance

OS:Construction,
  {1d4f942d-c228-467b-a67f-2d060d51d8df}, ! Handle
  AEDG K12 Nonres 6B Ext Slab Unheated - 8in Slab with Carpet, ! Name
  ,                                       ! Surface Rendering Name
  {6ff206e8-77b1-4537-81f5-0cb898512369}, ! Layer 1
  {b38abc35-01a4-4223-9302-8beefe79fb15}; ! Layer 2

OS:Material:NoMass,
  {b38abc35-01a4-4223-9302-8beefe79fb15}, ! Handle
  CP02 CARPET PAD,                        ! Name
  VeryRough,                              ! Roughness
  0.21648,                                ! Thermal Resistance {m2-K/W}
  0.9,                                    ! Thermal Absorptance
  0.7,                                    ! Solar Absorptance
  0.8;                                    ! Visible Absorptance

OS:ComponentCost:LineItem,
  {50cb03ec-cf88-471e-b411-4760a4b03631}, ! Handle
  AEDG K12 Nonres 6B Ext Slab Unheated - 8in Slab with Carpet, ! Name
  ,                                       ! Type
  Construction,                           ! Line Item Type
  AEDG K12 Nonres 6B Ext Slab Unheated - 8in Slab with Carpet, ! Item Name
  ,                                       ! Object End Use Key
  ,                                       ! Quantity {dimensionless}
  0,                                      ! Material Cost {$}
  CostPerArea;                            ! Material Cost Units

