
OS:Version,
  {3ed283fb-9397-47f2-bf69-2e35bc2154b3}, ! Handle
  0.9.3;                                  ! Version Identifier

OS:Material,
  {4d3be07c-9d19-44be-89be-b47b9432ff48}, ! Handle
  Wall Insulation,                        ! Name
  MediumRough,                            ! Roughness
  0.0598725,                              ! Thickness {m}
  0.045,                                  ! Conductivity {W/m-K}
  265,                                    ! Density {kg/m3}
  836.8,                                  ! Specific Heat {J/kg-K}
  0.9,                                    ! Thermal Absorptance
  0.7,                                    ! Solar Absorptance
  0.7;                                    ! Visible Absorptance

OS:Material,
  {f7324918-bd16-4e15-884f-cb90a49d651c}, ! Handle
  1/2IN Gypsum,                           ! Name
  Smooth,                                 ! Roughness
  0.01271,                                ! Thickness {m}
  0.16,                                   ! Conductivity {W/m-K}
  784.9,                                  ! Density {kg/m3}
  830,                                    ! Specific Heat {J/kg-K}
  0.9,                                    ! Thermal Absorptance
  0.92,                                   ! Solar Absorptance
  0.92;                                   ! Visible Absorptance

OS:ComponentCost:LineItem,
  {89e2f301-fdad-4929-9758-6544d9c4866c}, ! Handle
  90.1-2001 Res B15 Ext Wall Metal Building, ! Name
  ,                                       ! Type
  Construction,                           ! Line Item Type
  90.1-2001 Res B15 Ext Wall Metal Building, ! Item Name
  ,                                       ! Object End Use Key
  ,                                       ! Quantity {dimensionless}
  98.78,                                  ! Material Cost {$}
  CostPerArea;                            ! Material Cost Units

OS:Material,
  {33add989-25ac-4364-95e6-bf4e81a4fc68}, ! Handle
  Metal Siding,                           ! Name
  Smooth,                                 ! Roughness
  0.0015,                                 ! Thickness {m}
  44.96,                                  ! Conductivity {W/m-K}
  7688.86,                                ! Density {kg/m3}
  410,                                    ! Specific Heat {J/kg-K}
  0.9,                                    ! Thermal Absorptance
  0.2,                                    ! Solar Absorptance
  0.2;                                    ! Visible Absorptance

OS:Construction,
  {c616f79b-7144-4636-be01-8415d56902eb}, ! Handle
  90.1-2001 Res B15 Ext Wall Metal Building, ! Name
  ,                                       ! Surface Rendering Name
  {33add989-25ac-4364-95e6-bf4e81a4fc68}, ! Layer 1
  {4d3be07c-9d19-44be-89be-b47b9432ff48}, ! Layer 2
  {f7324918-bd16-4e15-884f-cb90a49d651c}; ! Layer 3

