
OS:Version,
  {29d70478-0a4f-416d-ad44-3483031ed062}, ! Handle
  0.9.3;                                  ! Version Identifier

OS:Material,
  {bf6ea094-562e-4825-809f-adbc40cd531c}, ! Handle
  1/2IN Gypsum,                           ! Name
  Smooth,                                 ! Roughness
  0.01271,                                ! Thickness {m}
  0.16,                                   ! Conductivity {W/m-K}
  784.9,                                  ! Density {kg/m3}
  830,                                    ! Specific Heat {J/kg-K}
  0.9,                                    ! Thermal Absorptance
  0.92,                                   ! Solar Absorptance
  0.92;                                   ! Visible Absorptance

OS:ComponentCost:LineItem,
  {cc8178ef-f013-4dec-9a03-86b67c93a11c}, ! Handle
  90.1-2007 Nonres 6B Ext Wall Mass,      ! Name
  ,                                       ! Type
  Construction,                           ! Line Item Type
  90.1-2007 Nonres 6B Ext Wall Mass,      ! Item Name
  ,                                       ! Object End Use Key
  ,                                       ! Quantity {dimensionless}
  67.955,                                 ! Material Cost {$}
  CostPerArea;                            ! Material Cost Units

OS:Construction,
  {43bc8698-6255-4144-879f-ff09de86bb55}, ! Handle
  90.1-2007 Nonres 6B Ext Wall Mass,      ! Name
  ,                                       ! Surface Rendering Name
  {afa863ff-a26d-46a5-8891-d9c88f2edc2b}, ! Layer 1
  {7ed4ec9e-f057-4b68-8759-d107a9a5847e}, ! Layer 2
  {0d93063c-03ea-425f-8b43-fd947d76376d}, ! Layer 3
  {bf6ea094-562e-4825-809f-adbc40cd531c}; ! Layer 4

OS:Material,
  {afa863ff-a26d-46a5-8891-d9c88f2edc2b}, ! Handle
  1IN Stucco,                             ! Name
  Smooth,                                 ! Roughness
  0.0253,                                 ! Thickness {m}
  0.6918,                                 ! Conductivity {W/m-K}
  1858,                                   ! Density {kg/m3}
  837,                                    ! Specific Heat {J/kg-K}
  0.9,                                    ! Thermal Absorptance
  0.92,                                   ! Solar Absorptance
  0.92;                                   ! Visible Absorptance

OS:Material,
  {7ed4ec9e-f057-4b68-8759-d107a9a5847e}, ! Handle
  8IN Concrete HW,                        ! Name
  MediumRough,                            ! Roughness
  0.2033,                                 ! Thickness {m}
  1.7296,                                 ! Conductivity {W/m-K}
  2243,                                   ! Density {kg/m3}
  837,                                    ! Specific Heat {J/kg-K}
  0.9,                                    ! Thermal Absorptance
  0.65,                                   ! Solar Absorptance
  0.65;                                   ! Visible Absorptance

OS:Material,
  {0d93063c-03ea-425f-8b43-fd947d76376d}, ! Handle
  Wall Insulation [12],                   ! Name
  MediumRough,                            ! Roughness
  0.0784782,                              ! Thickness {m}
  0.0432,                                 ! Conductivity {W/m-K}
  91,                                     ! Density {kg/m3}
  837,                                    ! Specific Heat {J/kg-K}
  0.9,                                    ! Thermal Absorptance
  0.5,                                    ! Solar Absorptance
  0.5;                                    ! Visible Absorptance

