
OS:Version,
  {3a7c0cdf-c859-4e04-a14f-ce4c7992fd85}, !- Handle
  1.1.0;                                  !- Version Identifier

OS:Construction,
  {d71227df-a987-4bee-9758-d6ee38231790}, !- Handle
  Sgl LoE (e2=.2) Clr 3mm,                !- Name
  ,                                       !- Surface Rendering Name
  {b84ccfb9-7005-4b3b-aa60-d5400be456c2}; !- Layer 1

OS:WindowMaterial:Glazing,
  {b84ccfb9-7005-4b3b-aa60-d5400be456c2}, !- Handle
  PYR B CLEAR 3MM,                        !- Name
  SpectralAverage,                        !- Optical Data Type
  ,                                       !- Window Glass Spectral Data Set Name
  0.003,                                  !- Thickness {m}
  0.74,                                   !- Solar Transmittance at Normal Incidence
  0.09,                                   !- Front Side Solar Reflectance at Normal Incidence
  0.1,                                    !- Back Side Solar Reflectance at Normal Incidence
  0.82,                                   !- Visible Transmittance at Normal Incidence
  0.11,                                   !- Front Side Visible Reflectance at Normal Incidence
  0.12,                                   !- Back Side Visible Reflectance at Normal Incidence
  0,                                      !- Infrared Transmittance at Normal Incidence
  0.84,                                   !- Front Side Infrared Hemispherical Emissivity
  0.2,                                    !- Back Side Infrared Hemispherical Emissivity
  0.9;                                    !- Conductivity {W/m-K}

