
OS:Version,
  {b7d3623c-6944-4a2e-98fc-6b1037bce611}, !- Handle
  1.1.0;                                  !- Version Identifier

OS:Construction,
  {e432c35c-3309-4109-903b-d9c2284c863f}, !- Handle
  Sgl LoE (e2=.2) Clr 3mm,                !- Name
  ,                                       !- Surface Rendering Name
  {f7d3aab0-154c-4a33-9a98-6629f7e57904}; !- Layer 1

OS:WindowMaterial:Glazing,
  {f7d3aab0-154c-4a33-9a98-6629f7e57904}, !- Handle
  PYR B CLEAR 3MM,                        !- Name
  SpectralAverage,                        !- Optical Data Type
  ,                                       !- Window Glass Spectral Data Set Name
  0.003,                                  !- Thickness {m}
  0.74,                                   !- Solar Transmittance at Normal Incidence
  0.09,                                   !- Front Side Solar Reflectance at Normal Incidence
  0.1,                                    !- Back Side Solar Reflectance at Normal Incidence
  0.82,                                   !- Visible Transmittance at Normal Incidence
  0.11,                                   !- Front Side Visible Reflectance at Normal Incidence
  0.12,                                   !- Back Side Visible Reflectance at Normal Incidence
  0,                                      !- Infrared Transmittance at Normal Incidence
  0.84,                                   !- Front Side Infrared Hemispherical Emissivity
  0.2,                                    !- Back Side Infrared Hemispherical Emissivity
  0.9;                                    !- Conductivity {W/m-K}

OS:ComponentData,
  {8336a52f-e070-422e-bc08-ad5dad44e2db}, !- Handle
  Component Data 1,                       !- Name
  {72b52db1-9b37-4dc2-979c-59229ab02b89}, !- UUID
  {eeab2b30-d2db-4cb3-81d6-43c7365e2ad2}, !- Version UUID
  1384380193,                             !- Creation Timestamp
  1384380193,                             !- Version Timestamp
  {e432c35c-3309-4109-903b-d9c2284c863f}, !- Name of Object 1
  {f7d3aab0-154c-4a33-9a98-6629f7e57904}; !- Name of Object 2

