
OS:Version,
  {1c2a7c37-1f74-45b9-ab23-ac6d00698005}, ! Handle
  0.9.3;                                  ! Version Identifier

OS:Material,
  {391e00c4-096d-4bbc-8a11-d2045fddc8d6}, ! Handle
  Floor Insulation [55],                  ! Name
  MediumRough,                            ! Roughness
  0.058588,                               ! Thickness {m}
  0.045,                                  ! Conductivity {W/m-K}
  265,                                    ! Density {kg/m3}
  836.8,                                  ! Specific Heat {J/kg-K}
  0.9,                                    ! Thermal Absorptance
  0.7,                                    ! Solar Absorptance
  0.7;                                    ! Visible Absorptance

OS:Material,
  {02b0811b-ee09-4e7a-b139-1867d8a60b81}, ! Handle
  MAT-CC05 8 HW CONCRETE,                 ! Name
  Rough,                                  ! Roughness
  0.20321,                                ! Thickness {m}
  1.311,                                  ! Conductivity {W/m-K}
  2240,                                   ! Density {kg/m3}
  836.8,                                  ! Specific Heat {J/kg-K}
  0.9,                                    ! Thermal Absorptance
  0.7,                                    ! Solar Absorptance
  0.7;                                    ! Visible Absorptance

OS:ComponentCost:LineItem,
  {522b45d4-9eab-41f6-a6c7-b4e0eee9d3a4}, ! Handle
  Title 24-2008 Nonres 15 Exposed Floor Mass, ! Name
  ,                                       ! Type
  Construction,                           ! Line Item Type
  Title 24-2008 Nonres 15 Exposed Floor Mass, ! Item Name
  ,                                       ! Object End Use Key
  ,                                       ! Quantity {dimensionless}
  48.922,                                 ! Material Cost {$}
  CostPerArea;                            ! Material Cost Units

OS:Material:NoMass,
  {7bbcabae-c7f2-479b-ad14-4b316fd12dd2}, ! Handle
  CP02 CARPET PAD,                        ! Name
  VeryRough,                              ! Roughness
  0.21648,                                ! Thermal Resistance {m2-K/W}
  0.9,                                    ! Thermal Absorptance
  0.7,                                    ! Solar Absorptance
  0.8;                                    ! Visible Absorptance

OS:Construction,
  {4827cc79-1227-496a-a181-205f67c1f58f}, ! Handle
  Title 24-2008 Nonres 15 Exposed Floor Mass, ! Name
  ,                                       ! Surface Rendering Name
  {391e00c4-096d-4bbc-8a11-d2045fddc8d6}, ! Layer 1
  {02b0811b-ee09-4e7a-b139-1867d8a60b81}, ! Layer 2
  {7bbcabae-c7f2-479b-ad14-4b316fd12dd2}; ! Layer 3

