
OS:Version,
  {0af6e181-76d3-479a-b207-cd86b389bef2}, ! Handle
  0.9.3;                                  ! Version Identifier

OS:Construction,
  {3ab7154f-90c4-4376-a37f-521309ec8067}, ! Handle
  90.1-2001 Res B6 Ext Wall Mass,         ! Name
  ,                                       ! Surface Rendering Name
  {cd4e1def-fd63-46b0-9b8d-4df1ad5aa253}, ! Layer 1
  {e61697b0-1fe3-438e-9ec8-9e2f63bd8763}, ! Layer 2
  {c7511a31-95f1-43b8-8d31-c6c03e1300c2}, ! Layer 3
  {dd368784-a31b-4c36-a45f-e0545b0bee47}; ! Layer 4

OS:Material,
  {cd4e1def-fd63-46b0-9b8d-4df1ad5aa253}, ! Handle
  1IN Stucco,                             ! Name
  Smooth,                                 ! Roughness
  0.0253,                                 ! Thickness {m}
  0.6918,                                 ! Conductivity {W/m-K}
  1858,                                   ! Density {kg/m3}
  837,                                    ! Specific Heat {J/kg-K}
  0.9,                                    ! Thermal Absorptance
  0.92,                                   ! Solar Absorptance
  0.92;                                   ! Visible Absorptance

OS:Material,
  {e61697b0-1fe3-438e-9ec8-9e2f63bd8763}, ! Handle
  8IN Concrete HW,                        ! Name
  MediumRough,                            ! Roughness
  0.2033,                                 ! Thickness {m}
  1.7296,                                 ! Conductivity {W/m-K}
  2243,                                   ! Density {kg/m3}
  837,                                    ! Specific Heat {J/kg-K}
  0.9,                                    ! Thermal Absorptance
  0.65,                                   ! Solar Absorptance
  0.65;                                   ! Visible Absorptance

OS:Material,
  {c7511a31-95f1-43b8-8d31-c6c03e1300c2}, ! Handle
  Wall Insulation [4],                    ! Name
  MediumRough,                            ! Roughness
  0.0338606,                              ! Thickness {m}
  0.0432,                                 ! Conductivity {W/m-K}
  91,                                     ! Density {kg/m3}
  837,                                    ! Specific Heat {J/kg-K}
  0.9,                                    ! Thermal Absorptance
  0.5,                                    ! Solar Absorptance
  0.5;                                    ! Visible Absorptance

OS:Material,
  {dd368784-a31b-4c36-a45f-e0545b0bee47}, ! Handle
  1/2IN Gypsum,                           ! Name
  Smooth,                                 ! Roughness
  0.01271,                                ! Thickness {m}
  0.16,                                   ! Conductivity {W/m-K}
  784.9,                                  ! Density {kg/m3}
  830,                                    ! Specific Heat {J/kg-K}
  0.9,                                    ! Thermal Absorptance
  0.92,                                   ! Solar Absorptance
  0.92;                                   ! Visible Absorptance

OS:ComponentCost:LineItem,
  {206b11d6-d48b-44bf-b171-1fd74609d636}, ! Handle
  90.1-2001 Res B6 Ext Wall Mass,         ! Name
  ,                                       ! Type
  Construction,                           ! Line Item Type
  90.1-2001 Res B6 Ext Wall Mass,         ! Item Name
  ,                                       ! Object End Use Key
  ,                                       ! Quantity {dimensionless}
  58.897,                                 ! Material Cost {$}
  CostPerArea;                            ! Material Cost Units

OS:ComponentData,
  {47aa3a0e-b07e-429c-983d-b3f61af85cc2}, ! Handle
  Component Data 1,                       ! Name
  {234ee640-3645-42a2-a96d-bb5f11fd9f5b}, ! UUID
  {c354717e-8290-4c22-8957-7de1907f7de0}, ! Version UUID
  1363981476,                             ! Creation Timestamp
  1363981476,                             ! Version Timestamp
  {3ab7154f-90c4-4376-a37f-521309ec8067}, ! Name of Object 1
  {cd4e1def-fd63-46b0-9b8d-4df1ad5aa253}, ! Name of Object 2
  {e61697b0-1fe3-438e-9ec8-9e2f63bd8763}, ! Name of Object 3
  {c7511a31-95f1-43b8-8d31-c6c03e1300c2}, ! Name of Object 4
  {dd368784-a31b-4c36-a45f-e0545b0bee47}, ! Name of Object 5
  {206b11d6-d48b-44bf-b171-1fd74609d636}; ! Name of Object 6

