
OS:Version,
  {a9835e21-ba3a-4dfd-9b37-6ef71d6a3b43}, ! Handle
  0.9.3;                                  ! Version Identifier

OS:Material,
  {9baf7f9c-db53-4053-9341-5e0b40d7172a}, ! Handle
  1IN Stucco,                             ! Name
  Smooth,                                 ! Roughness
  0.0253,                                 ! Thickness {m}
  0.6918,                                 ! Conductivity {W/m-K}
  1858,                                   ! Density {kg/m3}
  837,                                    ! Specific Heat {J/kg-K}
  0.9,                                    ! Thermal Absorptance
  0.92,                                   ! Solar Absorptance
  0.92;                                   ! Visible Absorptance

OS:Material,
  {d2a671f8-468e-40a4-be1e-9eda251e0f0c}, ! Handle
  8IN Concrete HW,                        ! Name
  MediumRough,                            ! Roughness
  0.2033,                                 ! Thickness {m}
  1.7296,                                 ! Conductivity {W/m-K}
  2243,                                   ! Density {kg/m3}
  837,                                    ! Specific Heat {J/kg-K}
  0.9,                                    ! Thermal Absorptance
  0.65,                                   ! Solar Absorptance
  0.65;                                   ! Visible Absorptance

OS:Material,
  {4d2751ee-abee-4b20-84e7-385d9fb0b2d1}, ! Handle
  Wall Insulation [4],                    ! Name
  MediumRough,                            ! Roughness
  0.0338606,                              ! Thickness {m}
  0.0432,                                 ! Conductivity {W/m-K}
  91,                                     ! Density {kg/m3}
  837,                                    ! Specific Heat {J/kg-K}
  0.9,                                    ! Thermal Absorptance
  0.5,                                    ! Solar Absorptance
  0.5;                                    ! Visible Absorptance

OS:ComponentCost:LineItem,
  {5c86cac2-9210-42d2-9d00-f92cf65dc986}, ! Handle
  90.1-2001 Res B6 Ext Wall Mass,         ! Name
  ,                                       ! Type
  Construction,                           ! Line Item Type
  90.1-2001 Res B6 Ext Wall Mass,         ! Item Name
  ,                                       ! Object End Use Key
  ,                                       ! Quantity {dimensionless}
  58.897,                                 ! Material Cost {$}
  CostPerArea;                            ! Material Cost Units

OS:Material,
  {4f14d835-a227-4434-b3dc-344a504501aa}, ! Handle
  1/2IN Gypsum,                           ! Name
  Smooth,                                 ! Roughness
  0.01271,                                ! Thickness {m}
  0.16,                                   ! Conductivity {W/m-K}
  784.9,                                  ! Density {kg/m3}
  830,                                    ! Specific Heat {J/kg-K}
  0.9,                                    ! Thermal Absorptance
  0.92,                                   ! Solar Absorptance
  0.92;                                   ! Visible Absorptance

OS:Construction,
  {eef4f789-8cc5-487f-953b-6d877b6b7129}, ! Handle
  90.1-2001 Res B6 Ext Wall Mass,         ! Name
  ,                                       ! Surface Rendering Name
  {9baf7f9c-db53-4053-9341-5e0b40d7172a}, ! Layer 1
  {d2a671f8-468e-40a4-be1e-9eda251e0f0c}, ! Layer 2
  {4d2751ee-abee-4b20-84e7-385d9fb0b2d1}, ! Layer 3
  {4f14d835-a227-4434-b3dc-344a504501aa}; ! Layer 4

