
OS:Version,
  {b5656ace-a79a-44ce-87bf-b098d49a0465}, ! Handle
  0.9.3;                                  ! Version Identifier

OS:Construction,
  {25339ada-817b-4d05-80b6-749f60d86df9}, ! Handle
  90.1-2007 Res 1A Ext Wall Steel-Framed, ! Name
  ,                                       ! Surface Rendering Name
  {5328cbb0-962c-4885-8ebb-9c92a77f9321}, ! Layer 1
  {1471fa69-6323-4e2c-8c2e-6ee7eca7772d}, ! Layer 2
  {3f61a028-5c28-4984-9c09-922ad34d67a6}; ! Layer 3

OS:Material:NoMass,
  {5328cbb0-962c-4885-8ebb-9c92a77f9321}, ! Handle
  MAT-SHEATH,                             ! Name
  Rough,                                  ! Roughness
  0.36256,                                ! Thermal Resistance {m2-K/W}
  0.9,                                    ! Thermal Absorptance
  0.7,                                    ! Solar Absorptance
  0.7;                                    ! Visible Absorptance

OS:Material,
  {1471fa69-6323-4e2c-8c2e-6ee7eca7772d}, ! Handle
  Wall Insulation [1],                    ! Name
  MediumRough,                            ! Roughness
  0.0373223,                              ! Thickness {m}
  0.045,                                  ! Conductivity {W/m-K}
  265,                                    ! Density {kg/m3}
  836.8,                                  ! Specific Heat {J/kg-K}
  0.9,                                    ! Thermal Absorptance
  0.7,                                    ! Solar Absorptance
  0.7;                                    ! Visible Absorptance

OS:Material,
  {3f61a028-5c28-4984-9c09-922ad34d67a6}, ! Handle
  1/2IN Gypsum,                           ! Name
  Smooth,                                 ! Roughness
  0.01271,                                ! Thickness {m}
  0.16,                                   ! Conductivity {W/m-K}
  784.9,                                  ! Density {kg/m3}
  830,                                    ! Specific Heat {J/kg-K}
  0.9,                                    ! Thermal Absorptance
  0.92,                                   ! Solar Absorptance
  0.92;                                   ! Visible Absorptance

OS:ComponentCost:LineItem,
  {283e4520-0790-4b63-8479-adc77c05556f}, ! Handle
  90.1-2007 Res 1A Ext Wall Steel-Framed, ! Name
  ,                                       ! Type
  Construction,                           ! Line Item Type
  90.1-2007 Res 1A Ext Wall Steel-Framed, ! Item Name
  ,                                       ! Object End Use Key
  ,                                       ! Quantity {dimensionless}
  87.08,                                  ! Material Cost {$}
  CostPerArea;                            ! Material Cost Units

OS:ComponentData,
  {1109db88-6b3c-4a62-9736-0a8539ac14e0}, ! Handle
  Component Data 1,                       ! Name
  {60e4b693-3562-4a25-9202-771465461242}, ! UUID
  {c851f1d9-8383-4b7d-b8e8-df2ce2ae6aaf}, ! Version UUID
  1363981832,                             ! Creation Timestamp
  1363981832,                             ! Version Timestamp
  {25339ada-817b-4d05-80b6-749f60d86df9}, ! Name of Object 1
  {5328cbb0-962c-4885-8ebb-9c92a77f9321}, ! Name of Object 2
  {1471fa69-6323-4e2c-8c2e-6ee7eca7772d}, ! Name of Object 3
  {3f61a028-5c28-4984-9c09-922ad34d67a6}, ! Name of Object 4
  {283e4520-0790-4b63-8479-adc77c05556f}; ! Name of Object 5

