
OS:Version,
  {ad50c0ba-91ed-4d39-83c2-7bf685af1d4c}, ! Handle
  0.9.3;                                  ! Version Identifier

OS:ComponentCost:LineItem,
  {656bb97b-920d-4ccc-a32b-e0d1493f01ec}, ! Handle
  90.1-2007 Res 1A Ext Wall Steel-Framed, ! Name
  ,                                       ! Type
  Construction,                           ! Line Item Type
  90.1-2007 Res 1A Ext Wall Steel-Framed, ! Item Name
  ,                                       ! Object End Use Key
  ,                                       ! Quantity {dimensionless}
  87.08,                                  ! Material Cost {$}
  CostPerArea;                            ! Material Cost Units

OS:Construction,
  {c224697d-7e94-46d4-9b7b-af58c9cb5258}, ! Handle
  90.1-2007 Res 1A Ext Wall Steel-Framed, ! Name
  ,                                       ! Surface Rendering Name
  {5480032d-e41f-425e-aa65-c8614ee28e82}, ! Layer 1
  {690cf682-7279-45c7-975c-7e5b3b77d06c}, ! Layer 2
  {be6dde2c-fa3b-4294-9108-1af6e3e23a36}; ! Layer 3

OS:Material:NoMass,
  {5480032d-e41f-425e-aa65-c8614ee28e82}, ! Handle
  MAT-SHEATH,                             ! Name
  Rough,                                  ! Roughness
  0.36256,                                ! Thermal Resistance {m2-K/W}
  0.9,                                    ! Thermal Absorptance
  0.7,                                    ! Solar Absorptance
  0.7;                                    ! Visible Absorptance

OS:Material,
  {690cf682-7279-45c7-975c-7e5b3b77d06c}, ! Handle
  Wall Insulation [1],                    ! Name
  MediumRough,                            ! Roughness
  0.0373223,                              ! Thickness {m}
  0.045,                                  ! Conductivity {W/m-K}
  265,                                    ! Density {kg/m3}
  836.8,                                  ! Specific Heat {J/kg-K}
  0.9,                                    ! Thermal Absorptance
  0.7,                                    ! Solar Absorptance
  0.7;                                    ! Visible Absorptance

OS:Material,
  {be6dde2c-fa3b-4294-9108-1af6e3e23a36}, ! Handle
  1/2IN Gypsum,                           ! Name
  Smooth,                                 ! Roughness
  0.01271,                                ! Thickness {m}
  0.16,                                   ! Conductivity {W/m-K}
  784.9,                                  ! Density {kg/m3}
  830,                                    ! Specific Heat {J/kg-K}
  0.9,                                    ! Thermal Absorptance
  0.92,                                   ! Solar Absorptance
  0.92;                                   ! Visible Absorptance

