
OS:Version,
  {53159a76-f27d-4541-b5ae-a5874677a7f3}, ! Handle
  0.9.3;                                  ! Version Identifier

OS:ComponentCost:LineItem,
  {b4d38906-624f-4c9c-b024-4355ff97d65e}, ! Handle
  90.1-1999 Res B17 Skylight without Curb, ! Name
  ,                                       ! Type
  Construction,                           ! Line Item Type
  90.1-1999 Res B17 Skylight without Curb, ! Item Name
  ,                                       ! Object End Use Key
  ,                                       ! Quantity {dimensionless}
  514.818,                                ! Material Cost {$}
  CostPerArea;                            ! Material Cost Units

OS:Construction,
  {ed782642-7f73-4140-ad2e-c6667d0f5344}, ! Handle
  90.1-1999 Res B17 Skylight without Curb, ! Name
  ,                                       ! Surface Rendering Name
  {5a912c32-cbbe-427c-8fb0-edbb02b46a8b}; ! Layer 1

OS:WindowMaterial:Glazing,
  {5a912c32-cbbe-427c-8fb0-edbb02b46a8b}, ! Handle
  Theoretical Glass [96],                 ! Name
  SpectralAverage,                        ! Optical Data Type
  ,                                       ! Window Glass Spectral Data Set Name
  0.003,                                  ! Thickness {m}
  0.472234,                               ! Solar Transmittance at Normal Incidence
  0.477766,                               ! Front Side Solar Reflectance at Normal Incidence
  0.477766,                               ! Back Side Solar Reflectance at Normal Incidence
  0.529698,                               ! Visible Transmittance at Normal Incidence
  0.420302,                               ! Front Side Visible Reflectance at Normal Incidence
  0.420302,                               ! Back Side Visible Reflectance at Normal Incidence
  0,                                      ! Infrared Transmittance at Normal Incidence
  0.9,                                    ! Front Side Infrared Hemispherical Emissivity
  0.9,                                    ! Back Side Infrared Hemispherical Emissivity
  0.0324872;                              ! Conductivity {W/m-K}

