
OS:Version,
  {4fd9360d-19aa-467e-b86f-0bcfbff6bab1}, ! Handle
  0.9.3;                                  ! Version Identifier

OS:Construction,
  {f9c75cff-8901-4656-aa19-e8f004c030dd}, ! Handle
  Title 24-2008 Nonres 9 Ext Wall Metal Building, ! Name
  ,                                       ! Surface Rendering Name
  {07ba2853-9905-4e30-b5fe-031c03ceeccc}, ! Layer 1
  {0ee0afdb-3cef-4072-8930-0ca9101ae5e6}, ! Layer 2
  {315b073f-f438-4b43-b6f2-aaf26acc4185}; ! Layer 3

OS:Material,
  {07ba2853-9905-4e30-b5fe-031c03ceeccc}, ! Handle
  Metal Siding,                           ! Name
  Smooth,                                 ! Roughness
  0.0015,                                 ! Thickness {m}
  44.96,                                  ! Conductivity {W/m-K}
  7688.86,                                ! Density {kg/m3}
  410,                                    ! Specific Heat {J/kg-K}
  0.9,                                    ! Thermal Absorptance
  0.2,                                    ! Solar Absorptance
  0.2;                                    ! Visible Absorptance

OS:Material,
  {0ee0afdb-3cef-4072-8930-0ca9101ae5e6}, ! Handle
  Wall Insulation [159],                  ! Name
  MediumRough,                            ! Roughness
  0.0812,                                 ! Thickness {m}
  0.045,                                  ! Conductivity {W/m-K}
  265,                                    ! Density {kg/m3}
  836.8,                                  ! Specific Heat {J/kg-K}
  0.9,                                    ! Thermal Absorptance
  0.7,                                    ! Solar Absorptance
  0.7;                                    ! Visible Absorptance

OS:Material,
  {315b073f-f438-4b43-b6f2-aaf26acc4185}, ! Handle
  1/2IN Gypsum,                           ! Name
  Smooth,                                 ! Roughness
  0.01271,                                ! Thickness {m}
  0.16,                                   ! Conductivity {W/m-K}
  784.9,                                  ! Density {kg/m3}
  830,                                    ! Specific Heat {J/kg-K}
  0.9,                                    ! Thermal Absorptance
  0.92,                                   ! Solar Absorptance
  0.92;                                   ! Visible Absorptance

OS:ComponentCost:LineItem,
  {5519a2bd-dd4e-4a85-9a92-98fbf51dbc58}, ! Handle
  Title 24-2008 Nonres 9 Ext Wall Metal Building, ! Name
  ,                                       ! Type
  Construction,                           ! Line Item Type
  Title 24-2008 Nonres 9 Ext Wall Metal Building, ! Item Name
  ,                                       ! Object End Use Key
  ,                                       ! Quantity {dimensionless}
  184.211,                                ! Material Cost {$}
  CostPerArea;                            ! Material Cost Units

