
! 
OS:Version,
  {8503bb35-3288-4176-9c41-752f3d976c4b}, !- Handle
  1.13.0;                                 !- Version Identifier


! 
OS:Material,
  {ea402bf9-d8b6-4d4b-9d62-9fa0034da6a6}, !- Handle
  Aislamiento: SATE
WEBER: weber.therm placa XPS 40 (0.040 m)
R: 1.2 m2K/W,                             !- Name
  MediumRough,                                 !- Roughness
  0.04,                                    !- Thickness {m}
  0.034,                                    !- Conductivity {W/m-K}
  30.0,                                    !- Density {kg/m3}
  800.0,                                    !- Specific Heat {J/kg-K}
  0.9,                                    !- Thermal Absorptance
  0.6,                                    !- Solar Absorptance
  0.6;                                    !- Visible Absorptance

