
OS:Version,
  {caf63523-f535-4f38-8420-105b5bc7a06b}, ! Handle
  0.9.3;                                  ! Version Identifier

OS:Material,
  {2935c3b5-f8be-49ba-bf91-49e57ef19862}, ! Handle
  AtticFloor Insulation [49],             ! Name
  MediumRough,                            ! Roughness
  0.205862,                               ! Thickness {m}
  0.049,                                  ! Conductivity {W/m-K}
  265,                                    ! Density {kg/m3}
  836.8,                                  ! Specific Heat {J/kg-K}
  0.9,                                    ! Thermal Absorptance
  0.7,                                    ! Solar Absorptance
  0.7;                                    ! Visible Absorptance

OS:ComponentCost:LineItem,
  {83cde1dd-8d22-4305-bd73-d603da59e9ba}, ! Handle
  Title 24-2008 Nonres 13 Attic Floor,    ! Name
  ,                                       ! Type
  Construction,                           ! Line Item Type
  Title 24-2008 Nonres 13 Attic Floor,    ! Item Name
  ,                                       ! Object End Use Key
  ,                                       ! Quantity {dimensionless}
  33.117,                                 ! Material Cost {$}
  CostPerArea;                            ! Material Cost Units

OS:Material,
  {cb7ce46a-f804-4f02-ac2b-a4919d6f71b5}, ! Handle
  1/2IN Gypsum Bottom,                    ! Name
  Smooth,                                 ! Roughness
  0.01271,                                ! Thickness {m}
  0.16,                                   ! Conductivity {W/m-K}
  784.9,                                  ! Density {kg/m3}
  830,                                    ! Specific Heat {J/kg-K}
  0.9,                                    ! Thermal Absorptance
  0.92,                                   ! Solar Absorptance
  0.92;                                   ! Visible Absorptance

OS:Material,
  {f620befd-b2a0-4305-996e-57ee80124050}, ! Handle
  1/2IN Gypsum Top,                       ! Name
  Smooth,                                 ! Roughness
  0.01271,                                ! Thickness {m}
  0.16,                                   ! Conductivity {W/m-K}
  784.9,                                  ! Density {kg/m3}
  830,                                    ! Specific Heat {J/kg-K}
  0.9,                                    ! Thermal Absorptance
  0.92,                                   ! Solar Absorptance
  0.92;                                   ! Visible Absorptance

OS:Construction,
  {a69b5dfc-211a-44c8-bacf-b879de5b2168}, ! Handle
  Title 24-2008 Nonres 13 Attic Floor,    ! Name
  ,                                       ! Surface Rendering Name
  {f620befd-b2a0-4305-996e-57ee80124050}, ! Layer 1
  {2935c3b5-f8be-49ba-bf91-49e57ef19862}, ! Layer 2
  {cb7ce46a-f804-4f02-ac2b-a4919d6f71b5}; ! Layer 3

