
OS:Version,
  {a79bdb87-b102-4d69-9282-7bbdc646f107}, ! Handle
  0.9.3;                                  ! Version Identifier

OS:ComponentCost:LineItem,
  {53ee64e4-11ef-428b-9469-8eaaeae2aae5}, ! Handle
  90.1 Windows Window Fixed 1304 Brk-ClrMpr, ! Name
  ,                                       ! Type
  Construction,                           ! Line Item Type
  90.1 Windows Window Fixed 1304 Brk-ClrMpr, ! Item Name
  ,                                       ! Object End Use Key
  ,                                       ! Quantity {dimensionless}
  0,                                      ! Material Cost {$}
  CostPerArea;                            ! Material Cost Units

OS:Construction,
  {e74a9425-d127-4866-9b6b-3aef09ced9b1}, ! Handle
  90.1 Windows Window Fixed 1304 Brk-ClrMpr, ! Name
  ,                                       ! Surface Rendering Name
  {88d440f3-139c-437d-8cf0-0d3b392812ec}; ! Layer 1

OS:WindowMaterial:Glazing,
  {88d440f3-139c-437d-8cf0-0d3b392812ec}, ! Handle
  Theoretical Glass [292],                ! Name
  SpectralAverage,                        ! Optical Data Type
  ,                                       ! Window Glass Spectral Data Set Name
  0.003,                                  ! Thickness {m}
  0.536642,                               ! Solar Transmittance at Normal Incidence
  0.413358,                               ! Front Side Solar Reflectance at Normal Incidence
  0.413358,                               ! Back Side Solar Reflectance at Normal Incidence
  0.469723,                               ! Visible Transmittance at Normal Incidence
  0.480277,                               ! Front Side Visible Reflectance at Normal Incidence
  0.480277,                               ! Back Side Visible Reflectance at Normal Incidence
  0,                                      ! Infrared Transmittance at Normal Incidence
  0.95,                                   ! Front Side Infrared Hemispherical Emissivity
  0.95,                                   ! Back Side Infrared Hemispherical Emissivity
  0.593551;                               ! Conductivity {W/m-K}

