
OS:Version,
  {1143027d-26aa-415a-8d98-5ac38100e71c}, ! Handle
  0.9.3;                                  ! Version Identifier

OS:Construction,
  {34b5d9d6-6ef8-4603-a0a5-f2bddf58d1c1}, ! Handle
  90.1 Windows Window Fixed 1304 Brk-ClrMpr, ! Name
  ,                                       ! Surface Rendering Name
  {f241f186-9ff4-4578-9a86-dba4e2ad26d4}; ! Layer 1

OS:WindowMaterial:Glazing,
  {f241f186-9ff4-4578-9a86-dba4e2ad26d4}, ! Handle
  Theoretical Glass [292],                ! Name
  SpectralAverage,                        ! Optical Data Type
  ,                                       ! Window Glass Spectral Data Set Name
  0.003,                                  ! Thickness {m}
  0.536642,                               ! Solar Transmittance at Normal Incidence
  0.413358,                               ! Front Side Solar Reflectance at Normal Incidence
  0.413358,                               ! Back Side Solar Reflectance at Normal Incidence
  0.469723,                               ! Visible Transmittance at Normal Incidence
  0.480277,                               ! Front Side Visible Reflectance at Normal Incidence
  0.480277,                               ! Back Side Visible Reflectance at Normal Incidence
  0,                                      ! Infrared Transmittance at Normal Incidence
  0.95,                                   ! Front Side Infrared Hemispherical Emissivity
  0.95,                                   ! Back Side Infrared Hemispherical Emissivity
  0.593551;                               ! Conductivity {W/m-K}

OS:ComponentCost:LineItem,
  {a2c16c24-9604-453c-a1a9-e13524f4415e}, ! Handle
  90.1 Windows Window Fixed 1304 Brk-ClrMpr, ! Name
  ,                                       ! Type
  Construction,                           ! Line Item Type
  90.1 Windows Window Fixed 1304 Brk-ClrMpr, ! Item Name
  ,                                       ! Object End Use Key
  ,                                       ! Quantity {dimensionless}
  0,                                      ! Material Cost {$}
  CostPerArea;                            ! Material Cost Units

OS:ComponentData,
  {74e38958-5793-48be-bb98-2e3a80a007ae}, ! Handle
  Component Data 1,                       ! Name
  {619c5378-2c6e-4d63-b926-291d01a224e5}, ! UUID
  {6f646f14-42f1-42b7-9056-0c9b61e5cfc6}, ! Version UUID
  1363981004,                             ! Creation Timestamp
  1363981004,                             ! Version Timestamp
  {34b5d9d6-6ef8-4603-a0a5-f2bddf58d1c1}, ! Name of Object 1
  {f241f186-9ff4-4578-9a86-dba4e2ad26d4}, ! Name of Object 2
  {a2c16c24-9604-453c-a1a9-e13524f4415e}; ! Name of Object 3

