
! 
OS:Version,
  {8503bb35-3288-4176-9c41-752f3d976c4b}, !- Handle
  1.13.0;                                 !- Version Identifier


! 
OS:Material,
  {6699d3a0-6595-4009-87f6-bbbb41747482}, !- Handle
  Aislamiento: SATE
WEBER: weber.therm placa EPS 200 (0.200 m)
R: 5.4 m2K/W,                             !- Name
  MediumRough,                                 !- Roughness
  0.2,                                    !- Thickness {m}
  0.037,                                    !- Conductivity {W/m-K}
  15.0,                                    !- Density {kg/m3}
  800.0,                                    !- Specific Heat {J/kg-K}
  0.9,                                    !- Thermal Absorptance
  0.6,                                    !- Solar Absorptance
  0.6;                                    !- Visible Absorptance

