
OS:Version,
  {3cd3127b-81f5-4397-8f6d-faf226b63528}, ! Handle
  0.9.3;                                  ! Version Identifier

OS:Construction,
  {a928b341-61f4-46a1-a60a-aa48f732a247}, ! Handle
  90.1-2007 Nonres 4B Ext Wall Mass,      ! Name
  ,                                       ! Surface Rendering Name
  {53e041de-24a2-4e25-af6a-83b0dbb71ad5}, ! Layer 1
  {50af652a-e6be-4995-9bdf-98101cbddc79}, ! Layer 2
  {8e797da8-a426-4d8e-bec9-950325b2684e}, ! Layer 3
  {0af42bb3-420b-4f9b-a714-ce8e557f7f98}; ! Layer 4

OS:Material,
  {53e041de-24a2-4e25-af6a-83b0dbb71ad5}, ! Handle
  1IN Stucco,                             ! Name
  Smooth,                                 ! Roughness
  0.0253,                                 ! Thickness {m}
  0.6918,                                 ! Conductivity {W/m-K}
  1858,                                   ! Density {kg/m3}
  837,                                    ! Specific Heat {J/kg-K}
  0.9,                                    ! Thermal Absorptance
  0.92,                                   ! Solar Absorptance
  0.92;                                   ! Visible Absorptance

OS:Material,
  {50af652a-e6be-4995-9bdf-98101cbddc79}, ! Handle
  8IN Concrete HW,                        ! Name
  MediumRough,                            ! Roughness
  0.2033,                                 ! Thickness {m}
  1.7296,                                 ! Conductivity {W/m-K}
  2243,                                   ! Density {kg/m3}
  837,                                    ! Specific Heat {J/kg-K}
  0.9,                                    ! Thermal Absorptance
  0.65,                                   ! Solar Absorptance
  0.65;                                   ! Visible Absorptance

OS:Material,
  {8e797da8-a426-4d8e-bec9-950325b2684e}, ! Handle
  Wall Insulation [7],                    ! Name
  MediumRough,                            ! Roughness
  0.056577,                               ! Thickness {m}
  0.0432,                                 ! Conductivity {W/m-K}
  91,                                     ! Density {kg/m3}
  837,                                    ! Specific Heat {J/kg-K}
  0.9,                                    ! Thermal Absorptance
  0.5,                                    ! Solar Absorptance
  0.5;                                    ! Visible Absorptance

OS:Material,
  {0af42bb3-420b-4f9b-a714-ce8e557f7f98}, ! Handle
  1/2IN Gypsum,                           ! Name
  Smooth,                                 ! Roughness
  0.01271,                                ! Thickness {m}
  0.16,                                   ! Conductivity {W/m-K}
  784.9,                                  ! Density {kg/m3}
  830,                                    ! Specific Heat {J/kg-K}
  0.9,                                    ! Thermal Absorptance
  0.92,                                   ! Solar Absorptance
  0.92;                                   ! Visible Absorptance

OS:ComponentCost:LineItem,
  {f564e159-232d-4d5f-8d50-db37daca5e5a}, ! Handle
  90.1-2007 Nonres 4B Ext Wall Mass,      ! Name
  ,                                       ! Type
  Construction,                           ! Line Item Type
  90.1-2007 Nonres 4B Ext Wall Mass,      ! Item Name
  ,                                       ! Object End Use Key
  ,                                       ! Quantity {dimensionless}
  63.663,                                 ! Material Cost {$}
  CostPerArea;                            ! Material Cost Units

