
OS:Version,
  {b8693614-8d8f-4bf1-b97d-3c289f73000e}, ! Handle
  0.9.3;                                  ! Version Identifier

OS:Construction,
  {f4e03ff9-a35e-41a1-9546-54da70cefab0}, ! Handle
  189.1-2009 Res 4B Ext Wall Steel-Framed, ! Name
  ,                                       ! Surface Rendering Name
  {abf24289-0bf7-4372-9745-6f74a2def4c5}, ! Layer 1
  {980f2182-4fd9-4556-a1fd-df88d3099d3f}, ! Layer 2
  {64e0bc4b-a08e-412e-a7de-03eec2625204}; ! Layer 3

OS:Material:NoMass,
  {abf24289-0bf7-4372-9745-6f74a2def4c5}, ! Handle
  MAT-SHEATH,                             ! Name
  Rough,                                  ! Roughness
  0.36256,                                ! Thermal Resistance {m2-K/W}
  0.9,                                    ! Thermal Absorptance
  0.7,                                    ! Solar Absorptance
  0.7;                                    ! Visible Absorptance

OS:Material,
  {980f2182-4fd9-4556-a1fd-df88d3099d3f}, ! Handle
  Wall Insulation [39],                   ! Name
  MediumRough,                            ! Roughness
  0.118387,                               ! Thickness {m}
  0.045,                                  ! Conductivity {W/m-K}
  265,                                    ! Density {kg/m3}
  836.8,                                  ! Specific Heat {J/kg-K}
  0.9,                                    ! Thermal Absorptance
  0.7,                                    ! Solar Absorptance
  0.7;                                    ! Visible Absorptance

OS:Material,
  {64e0bc4b-a08e-412e-a7de-03eec2625204}, ! Handle
  1/2IN Gypsum,                           ! Name
  Smooth,                                 ! Roughness
  0.01271,                                ! Thickness {m}
  0.16,                                   ! Conductivity {W/m-K}
  784.9,                                  ! Density {kg/m3}
  830,                                    ! Specific Heat {J/kg-K}
  0.9,                                    ! Thermal Absorptance
  0.92,                                   ! Solar Absorptance
  0.92;                                   ! Visible Absorptance

OS:ComponentCost:LineItem,
  {86bfe1bc-04db-460b-b851-2e9c33577426}, ! Handle
  189.1-2009 Res 4B Ext Wall Steel-Framed, ! Name
  ,                                       ! Type
  Construction,                           ! Line Item Type
  189.1-2009 Res 4B Ext Wall Steel-Framed, ! Item Name
  ,                                       ! Object End Use Key
  ,                                       ! Quantity {dimensionless}
  97.51,                                  ! Material Cost {$}
  CostPerArea;                            ! Material Cost Units

