
OS:Version,
  {ee98577f-cd37-4272-970a-2849b2c07b03}, ! Handle
  0.9.3;                                  ! Version Identifier

OS:Material,
  {9590ab93-30b5-48ac-8089-dedf9c8170b6}, ! Handle
  GP01 1/2 GYPSUM 1,                      ! Name
  Smooth,                                 ! Roughness
  0.01271,                                ! Thickness {m}
  0.16,                                   ! Conductivity {W/m-K}
  800,                                    ! Density {kg/m3}
  1090,                                   ! Specific Heat {J/kg-K}
  0.9,                                    ! Thermal Absorptance
  0.7,                                    ! Solar Absorptance
  0.5;                                    ! Visible Absorptance

OS:Construction,
  {5aeef2eb-7677-4742-995d-1cec2bf5fee5}, ! Handle
  90.1-2004 Res 3A Int Wall,              ! Name
  ,                                       ! Surface Rendering Name
  {e61424fe-d385-43c5-a307-c224248c1703}, ! Layer 1
  {e61424fe-d385-43c5-a307-c224248c1703}; ! Layer 2

OS:Material,
  {e61424fe-d385-43c5-a307-c224248c1703}, ! Handle
  GP01 1/2 GYPSUM,                        ! Name
  Smooth,                                 ! Roughness
  0.01271,                                ! Thickness {m}
  0.16,                                   ! Conductivity {W/m-K}
  800,                                    ! Density {kg/m3}
  1090,                                   ! Specific Heat {J/kg-K}
  0.9,                                    ! Thermal Absorptance
  0.7,                                    ! Solar Absorptance
  0.5;                                    ! Visible Absorptance

OS:ComponentCost:LineItem,
  {9ef8d143-d26e-4554-aa7b-140da21da49d}, ! Handle
  90.1-2004 Res 3A Int Wall,              ! Name
  ,                                       ! Type
  Construction,                           ! Line Item Type
  90.1-2004 Res 3A Int Wall,              ! Item Name
  ,                                       ! Object End Use Key
  ,                                       ! Quantity {dimensionless}
  0,                                      ! Material Cost {$}
  CostPerArea;                            ! Material Cost Units

