
! 
OS:Version,
  {b931843d-5409-43ea-9d81-bda9506faad6}, !- Handle
  1.13.0;                                 !- Version Identifier


! 
OS:Material,
  {cd1f3392-7b12-498c-ae20-af08a3e9082e}, !- Handle
  Aislamiento: CUBIERTA TRASDOSADO
ISOVER: IBR (0.080 m)
R: 2.0 m2K/W,                             !- Name
  MediumRough,                                 !- Roughness
  0.08,                                    !- Thickness {m}
  0.04,                                    !- Conductivity {W/m-K}
  50.0,                                    !- Density {kg/m3}
  800.0,                                    !- Specific Heat {J/kg-K}
  0.9,                                    !- Thermal Absorptance
  0.6,                                    !- Solar Absorptance
  0.6;                                    !- Visible Absorptance

