
OS:Version,
  {1d62f0ca-ab47-4ec8-875d-304080685026}, ! Handle
  0.9.3;                                  ! Version Identifier

OS:Material,
  {c7d74a7d-ccfe-4ec6-9cb6-c12f57a5917d}, ! Handle
  Roof Membrane,                          ! Name
  VeryRough,                              ! Roughness
  0.0095,                                 ! Thickness {m}
  0.16,                                   ! Conductivity {W/m-K}
  1121.29,                                ! Density {kg/m3}
  1460,                                   ! Specific Heat {J/kg-K}
  0.9,                                    ! Thermal Absorptance
  0.7,                                    ! Solar Absorptance
  0.7;                                    ! Visible Absorptance

OS:Material,
  {71c668b3-13a2-48f3-a3e9-9fa83c4c2c2e}, ! Handle
  Roof Insulation [7],                    ! Name
  MediumRough,                            ! Roughness
  0.167563,                               ! Thickness {m}
  0.049,                                  ! Conductivity {W/m-K}
  265,                                    ! Density {kg/m3}
  836.8,                                  ! Specific Heat {J/kg-K}
  0.9,                                    ! Thermal Absorptance
  0.7,                                    ! Solar Absorptance
  0.7;                                    ! Visible Absorptance

OS:Material,
  {0d0cae62-29ac-43d4-964b-a9fd86dc4729}, ! Handle
  Metal Decking,                          ! Name
  MediumSmooth,                           ! Roughness
  0.001524,                               ! Thickness {m}
  45.006,                                 ! Conductivity {W/m-K}
  7680,                                   ! Density {kg/m3}
  418.4,                                  ! Specific Heat {J/kg-K}
  0.9,                                    ! Thermal Absorptance
  0.7,                                    ! Solar Absorptance
  0.3;                                    ! Visible Absorptance

OS:Construction,
  {cf14884a-c310-4483-a34f-32243eb21b72}, ! Handle
  90.1-2004 Res 8A Roof IEAD,             ! Name
  ,                                       ! Surface Rendering Name
  {c7d74a7d-ccfe-4ec6-9cb6-c12f57a5917d}, ! Layer 1
  {71c668b3-13a2-48f3-a3e9-9fa83c4c2c2e}, ! Layer 2
  {0d0cae62-29ac-43d4-964b-a9fd86dc4729}; ! Layer 3

OS:ComponentCost:LineItem,
  {8a5b164f-4a1c-46f1-9e27-f3a815e5a475}, ! Handle
  90.1-2004 Res 8A Roof IEAD,             ! Name
  ,                                       ! Type
  Construction,                           ! Line Item Type
  90.1-2004 Res 8A Roof IEAD,             ! Item Name
  ,                                       ! Object End Use Key
  ,                                       ! Quantity {dimensionless}
  52.896,                                 ! Material Cost {$}
  CostPerArea;                            ! Material Cost Units

