
OS:Version,
  {09684e6d-e00e-4ceb-a506-ed92154f9591}, ! Handle
  0.9.3;                                  ! Version Identifier

OS:ComponentCost:LineItem,
  {85268c68-51a0-4eb9-8a86-00cd4c5ebf07}, ! Handle
  90.1-1999 Nonres B15 Window Fixed,      ! Name
  ,                                       ! Type
  Construction,                           ! Line Item Type
  90.1-1999 Nonres B15 Window Fixed,      ! Item Name
  ,                                       ! Object End Use Key
  ,                                       ! Quantity {dimensionless}
  444.232,                                ! Material Cost {$}
  CostPerArea;                            ! Material Cost Units

OS:Construction,
  {20f9194c-3efe-41c8-9ab1-37f57dcb5448}, ! Handle
  90.1-1999 Nonres B15 Window Fixed,      ! Name
  ,                                       ! Surface Rendering Name
  {f5e72250-62d5-4b48-b5a7-514172001071}; ! Layer 1

OS:WindowMaterial:Glazing,
  {f5e72250-62d5-4b48-b5a7-514172001071}, ! Handle
  Theoretical Glass [37],                 ! Name
  SpectralAverage,                        ! Optical Data Type
  ,                                       ! Window Glass Spectral Data Set Name
  0.003,                                  ! Thickness {m}
  0.48413,                                ! Solar Transmittance at Normal Incidence
  0.46587,                                ! Front Side Solar Reflectance at Normal Incidence
  0.46587,                                ! Back Side Solar Reflectance at Normal Incidence
  0.529698,                               ! Visible Transmittance at Normal Incidence
  0.420302,                               ! Front Side Visible Reflectance at Normal Incidence
  0.420302,                               ! Back Side Visible Reflectance at Normal Incidence
  0,                                      ! Infrared Transmittance at Normal Incidence
  0.9,                                    ! Front Side Infrared Hemispherical Emissivity
  0.9,                                    ! Back Side Infrared Hemispherical Emissivity
  0.0134755;                              ! Conductivity {W/m-K}

