
OS:Version,
  {ae11c712-67c0-4084-aa9c-e6ab3b7480dc}, ! Handle
  0.9.3;                                  ! Version Identifier

OS:Material,
  {f1d6ba71-6573-4614-a233-88cf653188ae}, ! Handle
  Roof Insulation [21],                   ! Name
  MediumRough,                            ! Roughness
  0.210538,                               ! Thickness {m}
  0.049,                                  ! Conductivity {W/m-K}
  265,                                    ! Density {kg/m3}
  836.8,                                  ! Specific Heat {J/kg-K}
  0.9,                                    ! Thermal Absorptance
  0.7,                                    ! Solar Absorptance
  0.7;                                    ! Visible Absorptance

OS:Material,
  {c695d33a-ba50-408f-9947-669a068c1ed0}, ! Handle
  Roof Membrane,                          ! Name
  VeryRough,                              ! Roughness
  0.0095,                                 ! Thickness {m}
  0.16,                                   ! Conductivity {W/m-K}
  1121.29,                                ! Density {kg/m3}
  1460,                                   ! Specific Heat {J/kg-K}
  0.9,                                    ! Thermal Absorptance
  0.7,                                    ! Solar Absorptance
  0.7;                                    ! Visible Absorptance

OS:Construction,
  {48caaf4e-46a4-4f93-868e-96a5dbbe3d5b}, ! Handle
  189.1-2009 Nonres 5B Roof IEAD,         ! Name
  ,                                       ! Surface Rendering Name
  {c695d33a-ba50-408f-9947-669a068c1ed0}, ! Layer 1
  {f1d6ba71-6573-4614-a233-88cf653188ae}, ! Layer 2
  {1a79d5ea-7c2b-4454-af4a-d605160905c3}; ! Layer 3

OS:Material,
  {1a79d5ea-7c2b-4454-af4a-d605160905c3}, ! Handle
  Metal Decking,                          ! Name
  MediumSmooth,                           ! Roughness
  0.001524,                               ! Thickness {m}
  45.006,                                 ! Conductivity {W/m-K}
  7680,                                   ! Density {kg/m3}
  418.4,                                  ! Specific Heat {J/kg-K}
  0.9,                                    ! Thermal Absorptance
  0.7,                                    ! Solar Absorptance
  0.3;                                    ! Visible Absorptance

OS:ComponentCost:LineItem,
  {c8348cbb-36e9-4c16-978b-030530cddd8a}, ! Handle
  189.1-2009 Nonres 5B Roof IEAD,         ! Name
  ,                                       ! Type
  Construction,                           ! Line Item Type
  189.1-2009 Nonres 5B Roof IEAD,         ! Item Name
  ,                                       ! Object End Use Key
  ,                                       ! Quantity {dimensionless}
  56.652,                                 ! Material Cost {$}
  CostPerArea;                            ! Material Cost Units

