
! 
OS:Version,
  {8503bb35-3288-4176-9c41-752f3d976c4b}, !- Handle
  1.13.0;                                 !- Version Identifier


! 
OS:Material,
  {840e6e7b-18bc-4f0e-8865-557c3daff9df}, !- Handle
  Aislamiento: SATE
WEBER: weber.therm placa de corcho 20 (0.030 m)
R: 0.8 m2K/W,                             !- Name
  MediumRough,                                 !- Roughness
  0.03,                                    !- Thickness {m}
  0.04,                                    !- Conductivity {W/m-K}
  110.0,                                    !- Density {kg/m3}
  1852.0,                                    !- Specific Heat {J/kg-K}
  0.9,                                    !- Thermal Absorptance
  0.6,                                    !- Solar Absorptance
  0.6;                                    !- Visible Absorptance

