
OS:Version,
  {f50d9586-9433-43f7-ab77-f35c684ba953}, ! Handle
  0.9.3;                                  ! Version Identifier

OS:Material,
  {b9466de3-d0b6-4517-9990-430d360d6802}, ! Handle
  Wall Insulation,                        ! Name
  MediumRough,                            ! Roughness
  0.0598725,                              ! Thickness {m}
  0.045,                                  ! Conductivity {W/m-K}
  265,                                    ! Density {kg/m3}
  836.8,                                  ! Specific Heat {J/kg-K}
  0.9,                                    ! Thermal Absorptance
  0.7,                                    ! Solar Absorptance
  0.7;                                    ! Visible Absorptance

OS:Material,
  {412bcbe7-6b78-4528-a1f1-fc1c2292e8de}, ! Handle
  Metal Siding,                           ! Name
  Smooth,                                 ! Roughness
  0.0015,                                 ! Thickness {m}
  44.96,                                  ! Conductivity {W/m-K}
  7688.86,                                ! Density {kg/m3}
  410,                                    ! Specific Heat {J/kg-K}
  0.9,                                    ! Thermal Absorptance
  0.2,                                    ! Solar Absorptance
  0.2;                                    ! Visible Absorptance

OS:Construction,
  {599773d0-3a7c-4622-b117-ec1b97b056d6}, ! Handle
  90.1-1999 Nonres B20 Ext Wall Metal Building, ! Name
  ,                                       ! Surface Rendering Name
  {412bcbe7-6b78-4528-a1f1-fc1c2292e8de}, ! Layer 1
  {b9466de3-d0b6-4517-9990-430d360d6802}, ! Layer 2
  {50bec7ec-fd18-42d5-9da2-c80830805f80}; ! Layer 3

OS:Material,
  {50bec7ec-fd18-42d5-9da2-c80830805f80}, ! Handle
  1/2IN Gypsum,                           ! Name
  Smooth,                                 ! Roughness
  0.01271,                                ! Thickness {m}
  0.16,                                   ! Conductivity {W/m-K}
  784.9,                                  ! Density {kg/m3}
  830,                                    ! Specific Heat {J/kg-K}
  0.9,                                    ! Thermal Absorptance
  0.92,                                   ! Solar Absorptance
  0.92;                                   ! Visible Absorptance

OS:ComponentCost:LineItem,
  {d4d3bbe5-b9e5-4dd7-b3be-44be4435ce4f}, ! Handle
  90.1-1999 Nonres B20 Ext Wall Metal Building, ! Name
  ,                                       ! Type
  Construction,                           ! Line Item Type
  90.1-1999 Nonres B20 Ext Wall Metal Building, ! Item Name
  ,                                       ! Object End Use Key
  ,                                       ! Quantity {dimensionless}
  98.78,                                  ! Material Cost {$}
  CostPerArea;                            ! Material Cost Units

