
OS:Version,
  {4a85653d-ea10-4c24-8be0-76eba781231a}, ! Handle
  0.9.3;                                  ! Version Identifier

OS:ComponentCost:LineItem,
  {2dbeaad3-6a87-435d-86f9-388ffe884ba0}, ! Handle
  90.1-1999 Res B11 Ext Wall Metal Building, ! Name
  ,                                       ! Type
  Construction,                           ! Line Item Type
  90.1-1999 Res B11 Ext Wall Metal Building, ! Item Name
  ,                                       ! Object End Use Key
  ,                                       ! Quantity {dimensionless}
  98.78,                                  ! Material Cost {$}
  CostPerArea;                            ! Material Cost Units

OS:Material,
  {30a68f00-d991-42b9-80ab-8ae3fc7da648}, ! Handle
  Metal Siding,                           ! Name
  Smooth,                                 ! Roughness
  0.0015,                                 ! Thickness {m}
  44.96,                                  ! Conductivity {W/m-K}
  7688.86,                                ! Density {kg/m3}
  410,                                    ! Specific Heat {J/kg-K}
  0.9,                                    ! Thermal Absorptance
  0.2,                                    ! Solar Absorptance
  0.2;                                    ! Visible Absorptance

OS:Material,
  {d804807e-7250-46cd-821c-d390e87c3740}, ! Handle
  Wall Insulation,                        ! Name
  MediumRough,                            ! Roughness
  0.0598725,                              ! Thickness {m}
  0.045,                                  ! Conductivity {W/m-K}
  265,                                    ! Density {kg/m3}
  836.8,                                  ! Specific Heat {J/kg-K}
  0.9,                                    ! Thermal Absorptance
  0.7,                                    ! Solar Absorptance
  0.7;                                    ! Visible Absorptance

OS:Construction,
  {32fcb725-2630-4f7b-854c-521e86d79298}, ! Handle
  90.1-1999 Res B11 Ext Wall Metal Building, ! Name
  ,                                       ! Surface Rendering Name
  {30a68f00-d991-42b9-80ab-8ae3fc7da648}, ! Layer 1
  {d804807e-7250-46cd-821c-d390e87c3740}, ! Layer 2
  {a4be916d-3d46-46d8-a10a-fc21a6222dfd}; ! Layer 3

OS:Material,
  {a4be916d-3d46-46d8-a10a-fc21a6222dfd}, ! Handle
  1/2IN Gypsum,                           ! Name
  Smooth,                                 ! Roughness
  0.01271,                                ! Thickness {m}
  0.16,                                   ! Conductivity {W/m-K}
  784.9,                                  ! Density {kg/m3}
  830,                                    ! Specific Heat {J/kg-K}
  0.9,                                    ! Thermal Absorptance
  0.92,                                   ! Solar Absorptance
  0.92;                                   ! Visible Absorptance

