
OS:Version,
  {5e1be1b9-ffaf-4821-b9dd-cbd6b56e588f}, ! Handle
  0.9.3;                                  ! Version Identifier

OS:Construction,
  {8ddaa6d1-4baf-4c81-9dc7-92bb905e476d}, ! Handle
  Title 24-2008 Nonres 5 Roof IEAD,       ! Name
  ,                                       ! Surface Rendering Name
  {235b84aa-44a0-4c8b-829a-9ce3829d8994}, ! Layer 1
  {8a89c5d8-ca1a-4640-9ccc-da9f36df76be}, ! Layer 2
  {6d1ea1d6-200e-4b8b-af5d-611dca9cca6c}; ! Layer 3

OS:Material,
  {235b84aa-44a0-4c8b-829a-9ce3829d8994}, ! Handle
  Roof Membrane [2],                      ! Name
  VeryRough,                              ! Roughness
  0.0095,                                 ! Thickness {m}
  0.16,                                   ! Conductivity {W/m-K}
  1121.29,                                ! Density {kg/m3}
  1460,                                   ! Specific Heat {J/kg-K}
  0.9,                                    ! Thermal Absorptance
  0.7,                                    ! Solar Absorptance
  0.85;                                   ! Visible Absorptance

OS:Material,
  {8a89c5d8-ca1a-4640-9ccc-da9f36df76be}, ! Handle
  Roof Insulation [105],                  ! Name
  MediumRough,                            ! Roughness
  0.164113,                               ! Thickness {m}
  0.049,                                  ! Conductivity {W/m-K}
  265,                                    ! Density {kg/m3}
  836.8,                                  ! Specific Heat {J/kg-K}
  0.9,                                    ! Thermal Absorptance
  0.7,                                    ! Solar Absorptance
  0.7;                                    ! Visible Absorptance

OS:Material,
  {6d1ea1d6-200e-4b8b-af5d-611dca9cca6c}, ! Handle
  Metal Decking,                          ! Name
  MediumSmooth,                           ! Roughness
  0.001524,                               ! Thickness {m}
  45.006,                                 ! Conductivity {W/m-K}
  7680,                                   ! Density {kg/m3}
  418.4,                                  ! Specific Heat {J/kg-K}
  0.9,                                    ! Thermal Absorptance
  0.7,                                    ! Solar Absorptance
  0.3;                                    ! Visible Absorptance

OS:ComponentCost:LineItem,
  {78c2674e-0edd-4b13-868a-58fc773e5b27}, ! Handle
  Title 24-2008 Nonres 5 Roof IEAD,       ! Name
  ,                                       ! Type
  Construction,                           ! Line Item Type
  Title 24-2008 Nonres 5 Roof IEAD,       ! Item Name
  ,                                       ! Object End Use Key
  ,                                       ! Quantity {dimensionless}
  52.649,                                 ! Material Cost {$}
  CostPerArea;                            ! Material Cost Units

