
OS:Version,
  {f1293e9c-8241-4a83-92b6-eb6bb33b4c96}, ! Handle
  0.9.3;                                  ! Version Identifier

OS:Material,
  {6eef22b5-7e70-4430-9ac5-182e576a335d}, ! Handle
  1IN Stucco,                             ! Name
  Smooth,                                 ! Roughness
  0.0253,                                 ! Thickness {m}
  0.6918,                                 ! Conductivity {W/m-K}
  1858,                                   ! Density {kg/m3}
  837,                                    ! Specific Heat {J/kg-K}
  0.9,                                    ! Thermal Absorptance
  0.92,                                   ! Solar Absorptance
  0.92;                                   ! Visible Absorptance

OS:Material,
  {98d71714-9d7f-45ef-b804-5b204a15c9d8}, ! Handle
  Wall Insulation [4],                    ! Name
  MediumRough,                            ! Roughness
  0.0338606,                              ! Thickness {m}
  0.0432,                                 ! Conductivity {W/m-K}
  91,                                     ! Density {kg/m3}
  837,                                    ! Specific Heat {J/kg-K}
  0.9,                                    ! Thermal Absorptance
  0.5,                                    ! Solar Absorptance
  0.5;                                    ! Visible Absorptance

OS:Construction,
  {acf93202-4008-480a-a5a1-660bab57774c}, ! Handle
  90.1-1999 Res B9 Ext Wall Mass,         ! Name
  ,                                       ! Surface Rendering Name
  {6eef22b5-7e70-4430-9ac5-182e576a335d}, ! Layer 1
  {06752bfe-0975-4060-a977-d1aac856c1d5}, ! Layer 2
  {98d71714-9d7f-45ef-b804-5b204a15c9d8}, ! Layer 3
  {0267b5f5-d385-4281-9c25-51ae90448a23}; ! Layer 4

OS:Material,
  {06752bfe-0975-4060-a977-d1aac856c1d5}, ! Handle
  8IN Concrete HW,                        ! Name
  MediumRough,                            ! Roughness
  0.2033,                                 ! Thickness {m}
  1.7296,                                 ! Conductivity {W/m-K}
  2243,                                   ! Density {kg/m3}
  837,                                    ! Specific Heat {J/kg-K}
  0.9,                                    ! Thermal Absorptance
  0.65,                                   ! Solar Absorptance
  0.65;                                   ! Visible Absorptance

OS:Material,
  {0267b5f5-d385-4281-9c25-51ae90448a23}, ! Handle
  1/2IN Gypsum,                           ! Name
  Smooth,                                 ! Roughness
  0.01271,                                ! Thickness {m}
  0.16,                                   ! Conductivity {W/m-K}
  784.9,                                  ! Density {kg/m3}
  830,                                    ! Specific Heat {J/kg-K}
  0.9,                                    ! Thermal Absorptance
  0.92,                                   ! Solar Absorptance
  0.92;                                   ! Visible Absorptance

OS:ComponentCost:LineItem,
  {8714f0c1-bb21-4271-8930-d64482f336ba}, ! Handle
  90.1-1999 Res B9 Ext Wall Mass,         ! Name
  ,                                       ! Type
  Construction,                           ! Line Item Type
  90.1-1999 Res B9 Ext Wall Mass,         ! Item Name
  ,                                       ! Object End Use Key
  ,                                       ! Quantity {dimensionless}
  58.897,                                 ! Material Cost {$}
  CostPerArea;                            ! Material Cost Units

