
OS:Version,
  {7ca8bd18-06c8-4047-9512-30c586f63a83}, ! Handle
  0.9.3;                                  ! Version Identifier

OS:Material,
  {37deac88-35e7-4d13-a475-f799893fe5b7}, ! Handle
  Roof Insulation,                        ! Name
  MediumRough,                            ! Roughness
  0.124958,                               ! Thickness {m}
  0.049,                                  ! Conductivity {W/m-K}
  265,                                    ! Density {kg/m3}
  836.8,                                  ! Specific Heat {J/kg-K}
  0.9,                                    ! Thermal Absorptance
  0.7,                                    ! Solar Absorptance
  0.7;                                    ! Visible Absorptance

OS:Material,
  {b70432ff-5ea6-40a6-9531-b72e54214145}, ! Handle
  Metal Decking,                          ! Name
  MediumSmooth,                           ! Roughness
  0.001524,                               ! Thickness {m}
  45.006,                                 ! Conductivity {W/m-K}
  7680,                                   ! Density {kg/m3}
  418.4,                                  ! Specific Heat {J/kg-K}
  0.9,                                    ! Thermal Absorptance
  0.7,                                    ! Solar Absorptance
  0.3;                                    ! Visible Absorptance

OS:Material,
  {02e728a1-9b73-4807-a63e-0cd04a975776}, ! Handle
  Roof Membrane,                          ! Name
  VeryRough,                              ! Roughness
  0.0095,                                 ! Thickness {m}
  0.16,                                   ! Conductivity {W/m-K}
  1121.29,                                ! Density {kg/m3}
  1460,                                   ! Specific Heat {J/kg-K}
  0.9,                                    ! Thermal Absorptance
  0.7,                                    ! Solar Absorptance
  0.7;                                    ! Visible Absorptance

OS:Construction,
  {ef79e2d5-5b0b-49a6-890f-2f7ac46cfd86}, ! Handle
  AEDG-SmOffice 1A Roof IEAD,             ! Name
  ,                                       ! Surface Rendering Name
  {02e728a1-9b73-4807-a63e-0cd04a975776}, ! Layer 1
  {37deac88-35e7-4d13-a475-f799893fe5b7}, ! Layer 2
  {b70432ff-5ea6-40a6-9531-b72e54214145}; ! Layer 3

OS:ComponentCost:LineItem,
  {291fef25-2e41-4a9e-a54c-0d6cf790daa0}, ! Handle
  AEDG-SmOffice 1A Roof IEAD,             ! Name
  ,                                       ! Type
  Construction,                           ! Line Item Type
  AEDG-SmOffice 1A Roof IEAD,             ! Item Name
  ,                                       ! Object End Use Key
  ,                                       ! Quantity {dimensionless}
  49.208,                                 ! Material Cost {$}
  CostPerArea;                            ! Material Cost Units

