
OS:Version,
  {dcb86a89-1217-438d-b939-ba2398ba1bfa}, ! Handle
  0.9.3;                                  ! Version Identifier

OS:Construction,
  {96dbc1d8-bba0-49a7-a630-036277fed771}, ! Handle
  90.1-2001 Nonres B11 Ext Wall Mass,     ! Name
  ,                                       ! Surface Rendering Name
  {00200ce0-5195-4537-a329-719876a96602}, ! Layer 1
  {be47e5b4-8384-409b-b1ad-53bb50b7d067}, ! Layer 2
  {489d956a-e273-4f9d-b3cb-fb9123737610}, ! Layer 3
  {d37e1908-9e84-4215-8408-0ee6b033ea79}; ! Layer 4

OS:Material,
  {00200ce0-5195-4537-a329-719876a96602}, ! Handle
  1IN Stucco,                             ! Name
  Smooth,                                 ! Roughness
  0.0253,                                 ! Thickness {m}
  0.6918,                                 ! Conductivity {W/m-K}
  1858,                                   ! Density {kg/m3}
  837,                                    ! Specific Heat {J/kg-K}
  0.9,                                    ! Thermal Absorptance
  0.92,                                   ! Solar Absorptance
  0.92;                                   ! Visible Absorptance

OS:Material,
  {be47e5b4-8384-409b-b1ad-53bb50b7d067}, ! Handle
  8IN Concrete HW,                        ! Name
  MediumRough,                            ! Roughness
  0.2033,                                 ! Thickness {m}
  1.7296,                                 ! Conductivity {W/m-K}
  2243,                                   ! Density {kg/m3}
  837,                                    ! Specific Heat {J/kg-K}
  0.9,                                    ! Thermal Absorptance
  0.65,                                   ! Solar Absorptance
  0.65;                                   ! Visible Absorptance

OS:Material,
  {489d956a-e273-4f9d-b3cb-fb9123737610}, ! Handle
  Wall Insulation [4],                    ! Name
  MediumRough,                            ! Roughness
  0.0338606,                              ! Thickness {m}
  0.0432,                                 ! Conductivity {W/m-K}
  91,                                     ! Density {kg/m3}
  837,                                    ! Specific Heat {J/kg-K}
  0.9,                                    ! Thermal Absorptance
  0.5,                                    ! Solar Absorptance
  0.5;                                    ! Visible Absorptance

OS:Material,
  {d37e1908-9e84-4215-8408-0ee6b033ea79}, ! Handle
  1/2IN Gypsum,                           ! Name
  Smooth,                                 ! Roughness
  0.01271,                                ! Thickness {m}
  0.16,                                   ! Conductivity {W/m-K}
  784.9,                                  ! Density {kg/m3}
  830,                                    ! Specific Heat {J/kg-K}
  0.9,                                    ! Thermal Absorptance
  0.92,                                   ! Solar Absorptance
  0.92;                                   ! Visible Absorptance

OS:ComponentCost:LineItem,
  {9ad5e544-3d6f-447b-a579-b8a1812de2fa}, ! Handle
  90.1-2001 Nonres B11 Ext Wall Mass,     ! Name
  ,                                       ! Type
  Construction,                           ! Line Item Type
  90.1-2001 Nonres B11 Ext Wall Mass,     ! Item Name
  ,                                       ! Object End Use Key
  ,                                       ! Quantity {dimensionless}
  58.897,                                 ! Material Cost {$}
  CostPerArea;                            ! Material Cost Units

OS:ComponentData,
  {c611860a-b556-4e0f-afba-c7f6b978486a}, ! Handle
  Component Data 1,                       ! Name
  {358c8b02-a84d-432e-a8cd-f9212c049445}, ! UUID
  {d2b110d7-7384-4409-bbd4-2b74760df0a5}, ! Version UUID
  1363981344,                             ! Creation Timestamp
  1363981344,                             ! Version Timestamp
  {96dbc1d8-bba0-49a7-a630-036277fed771}, ! Name of Object 1
  {00200ce0-5195-4537-a329-719876a96602}, ! Name of Object 2
  {be47e5b4-8384-409b-b1ad-53bb50b7d067}, ! Name of Object 3
  {489d956a-e273-4f9d-b3cb-fb9123737610}, ! Name of Object 4
  {d37e1908-9e84-4215-8408-0ee6b033ea79}, ! Name of Object 5
  {9ad5e544-3d6f-447b-a579-b8a1812de2fa}; ! Name of Object 6

