
OS:Version,
  {9a9f053d-21c4-4a45-9173-1f27bc5e9792}, ! Handle
  0.9.3;                                  ! Version Identifier

OS:Material,
  {1dff2c88-794a-4477-b2e6-eaea9316aafd}, ! Handle
  1IN Stucco,                             ! Name
  Smooth,                                 ! Roughness
  0.0253,                                 ! Thickness {m}
  0.6918,                                 ! Conductivity {W/m-K}
  1858,                                   ! Density {kg/m3}
  837,                                    ! Specific Heat {J/kg-K}
  0.9,                                    ! Thermal Absorptance
  0.92,                                   ! Solar Absorptance
  0.92;                                   ! Visible Absorptance

OS:Material,
  {bc1ea2a0-136d-4d34-a040-1c0b7087f8a3}, ! Handle
  Wall Insulation [4],                    ! Name
  MediumRough,                            ! Roughness
  0.0338606,                              ! Thickness {m}
  0.0432,                                 ! Conductivity {W/m-K}
  91,                                     ! Density {kg/m3}
  837,                                    ! Specific Heat {J/kg-K}
  0.9,                                    ! Thermal Absorptance
  0.5,                                    ! Solar Absorptance
  0.5;                                    ! Visible Absorptance

OS:Material,
  {480190d3-d807-4e8a-bb19-74b09afdc402}, ! Handle
  1/2IN Gypsum,                           ! Name
  Smooth,                                 ! Roughness
  0.01271,                                ! Thickness {m}
  0.16,                                   ! Conductivity {W/m-K}
  784.9,                                  ! Density {kg/m3}
  830,                                    ! Specific Heat {J/kg-K}
  0.9,                                    ! Thermal Absorptance
  0.92,                                   ! Solar Absorptance
  0.92;                                   ! Visible Absorptance

OS:ComponentCost:LineItem,
  {ba8d44b7-09c2-4ad9-b738-e395e9ed411a}, ! Handle
  90.1-2001 Nonres B11 Ext Wall Mass,     ! Name
  ,                                       ! Type
  Construction,                           ! Line Item Type
  90.1-2001 Nonres B11 Ext Wall Mass,     ! Item Name
  ,                                       ! Object End Use Key
  ,                                       ! Quantity {dimensionless}
  58.897,                                 ! Material Cost {$}
  CostPerArea;                            ! Material Cost Units

OS:Material,
  {7849aad2-7492-4633-a237-3ecb4d0e22d1}, ! Handle
  8IN Concrete HW,                        ! Name
  MediumRough,                            ! Roughness
  0.2033,                                 ! Thickness {m}
  1.7296,                                 ! Conductivity {W/m-K}
  2243,                                   ! Density {kg/m3}
  837,                                    ! Specific Heat {J/kg-K}
  0.9,                                    ! Thermal Absorptance
  0.65,                                   ! Solar Absorptance
  0.65;                                   ! Visible Absorptance

OS:Construction,
  {176a9179-7245-4a3f-9497-18341907a330}, ! Handle
  90.1-2001 Nonres B11 Ext Wall Mass,     ! Name
  ,                                       ! Surface Rendering Name
  {1dff2c88-794a-4477-b2e6-eaea9316aafd}, ! Layer 1
  {7849aad2-7492-4633-a237-3ecb4d0e22d1}, ! Layer 2
  {bc1ea2a0-136d-4d34-a040-1c0b7087f8a3}, ! Layer 3
  {480190d3-d807-4e8a-bb19-74b09afdc402}; ! Layer 4

