
OS:Version,
  {3abff763-711b-4e0e-95b2-519efdeb84ad}, ! Handle
  0.9.3;                                  ! Version Identifier

OS:ComponentCost:LineItem,
  {8f9fa009-ef36-42d6-b218-73268779659e}, ! Handle
  Title 24-2008 Nonres 10 Attic Floor,    ! Name
  ,                                       ! Type
  Construction,                           ! Line Item Type
  Title 24-2008 Nonres 10 Attic Floor,    ! Item Name
  ,                                       ! Object End Use Key
  ,                                       ! Quantity {dimensionless}
  33.117,                                 ! Material Cost {$}
  CostPerArea;                            ! Material Cost Units

OS:Material,
  {ca673c44-d297-4c30-97cc-cd9d6cc77830}, ! Handle
  1/2IN Gypsum Top,                       ! Name
  Smooth,                                 ! Roughness
  0.01271,                                ! Thickness {m}
  0.16,                                   ! Conductivity {W/m-K}
  784.9,                                  ! Density {kg/m3}
  830,                                    ! Specific Heat {J/kg-K}
  0.9,                                    ! Thermal Absorptance
  0.92,                                   ! Solar Absorptance
  0.92;                                   ! Visible Absorptance

OS:Construction,
  {84d6b4b9-8e6c-4a94-9d9a-b4f3f415e4ce}, ! Handle
  Title 24-2008 Nonres 10 Attic Floor,    ! Name
  ,                                       ! Surface Rendering Name
  {ca673c44-d297-4c30-97cc-cd9d6cc77830}, ! Layer 1
  {67e2b0f9-c98a-4cba-8642-b4554f36d1bc}, ! Layer 2
  {ffc37ca6-329f-4b74-96e4-ae24b8097777}; ! Layer 3

OS:Material,
  {67e2b0f9-c98a-4cba-8642-b4554f36d1bc}, ! Handle
  AtticFloor Insulation [49],             ! Name
  MediumRough,                            ! Roughness
  0.205862,                               ! Thickness {m}
  0.049,                                  ! Conductivity {W/m-K}
  265,                                    ! Density {kg/m3}
  836.8,                                  ! Specific Heat {J/kg-K}
  0.9,                                    ! Thermal Absorptance
  0.7,                                    ! Solar Absorptance
  0.7;                                    ! Visible Absorptance

OS:Material,
  {ffc37ca6-329f-4b74-96e4-ae24b8097777}, ! Handle
  1/2IN Gypsum Bottom,                    ! Name
  Smooth,                                 ! Roughness
  0.01271,                                ! Thickness {m}
  0.16,                                   ! Conductivity {W/m-K}
  784.9,                                  ! Density {kg/m3}
  830,                                    ! Specific Heat {J/kg-K}
  0.9,                                    ! Thermal Absorptance
  0.92,                                   ! Solar Absorptance
  0.92;                                   ! Visible Absorptance

