
OS:Version,
  {c1150935-efeb-488e-9daa-3b09f6bc4acd}, ! Handle
  0.9.3;                                  ! Version Identifier

OS:Construction,
  {c1f9d189-fa03-4071-a780-b714489ab130}, ! Handle
  90.1-1999 Nonres B24 Ext Slab Unheated - 4in Slab without Carpet, ! Name
  ,                                       ! Surface Rendering Name
  {462c9a54-1426-4cdf-90ee-f5713454e45c}; ! Layer 1

OS:Material,
  {462c9a54-1426-4cdf-90ee-f5713454e45c}, ! Handle
  MAT-CC05 4 HW CONCRETE,                 ! Name
  Rough,                                  ! Roughness
  0.1016,                                 ! Thickness {m}
  1.311,                                  ! Conductivity {W/m-K}
  2240,                                   ! Density {kg/m3}
  836.8,                                  ! Specific Heat {J/kg-K}
  0.9,                                    ! Thermal Absorptance
  0.7,                                    ! Solar Absorptance
  0.7;                                    ! Visible Absorptance

OS:ComponentCost:LineItem,
  {7c00764a-e93a-481a-a827-bee6fde6dc57}, ! Handle
  90.1-1999 Nonres B24 Ext Slab Unheated - 4in Slab without Carpet, ! Name
  ,                                       ! Type
  Construction,                           ! Line Item Type
  90.1-1999 Nonres B24 Ext Slab Unheated - 4in Slab without Carpet, ! Item Name
  ,                                       ! Object End Use Key
  ,                                       ! Quantity {dimensionless}
  45.52,                                  ! Material Cost {$}
  CostPerArea;                            ! Material Cost Units

OS:ComponentData,
  {3c5f31c5-7547-4727-a595-3dd458038488}, ! Handle
  Component Data 1,                       ! Name
  {4835e434-4070-4d93-9918-9d3014abe859}, ! UUID
  {fb7279c7-f830-4763-b886-f4491e844009}, ! Version UUID
  1363981149,                             ! Creation Timestamp
  1363981149,                             ! Version Timestamp
  {c1f9d189-fa03-4071-a780-b714489ab130}, ! Name of Object 1
  {462c9a54-1426-4cdf-90ee-f5713454e45c}, ! Name of Object 2
  {7c00764a-e93a-481a-a827-bee6fde6dc57}; ! Name of Object 3

