
OS:Version,
  {057d6f4d-29aa-431e-9bcb-da28538c2c75}, ! Handle
  0.9.3;                                  ! Version Identifier

OS:Construction,
  {b73fc536-3be0-4a4d-bb84-a8c2cb1b783a}, ! Handle
  AEDG-SmOffice 5B Ext Slab Unheated - 4in Slab with Carpet, ! Name
  ,                                       ! Surface Rendering Name
  {78f0e081-4ccb-411f-987e-262ff896d6f3}, ! Layer 1
  {b21f35fa-26c9-4727-82ad-ca9d3adb1249}; ! Layer 2

OS:Material,
  {78f0e081-4ccb-411f-987e-262ff896d6f3}, ! Handle
  MAT-CC05 4 HW CONCRETE,                 ! Name
  Rough,                                  ! Roughness
  0.1016,                                 ! Thickness {m}
  1.311,                                  ! Conductivity {W/m-K}
  2240,                                   ! Density {kg/m3}
  836.8,                                  ! Specific Heat {J/kg-K}
  0.9,                                    ! Thermal Absorptance
  0.7,                                    ! Solar Absorptance
  0.7;                                    ! Visible Absorptance

OS:Material:NoMass,
  {b21f35fa-26c9-4727-82ad-ca9d3adb1249}, ! Handle
  CP02 CARPET PAD,                        ! Name
  VeryRough,                              ! Roughness
  0.21648,                                ! Thermal Resistance {m2-K/W}
  0.9,                                    ! Thermal Absorptance
  0.7,                                    ! Solar Absorptance
  0.8;                                    ! Visible Absorptance

OS:ComponentCost:LineItem,
  {ee05a710-cef4-4e86-883d-9169d866bd6c}, ! Handle
  AEDG-SmOffice 5B Ext Slab Unheated - 4in Slab with Carpet, ! Name
  ,                                       ! Type
  Construction,                           ! Line Item Type
  AEDG-SmOffice 5B Ext Slab Unheated - 4in Slab with Carpet, ! Item Name
  ,                                       ! Object End Use Key
  ,                                       ! Quantity {dimensionless}
  45.52,                                  ! Material Cost {$}
  CostPerArea;                            ! Material Cost Units

OS:ComponentData,
  {3dcfe17d-761a-471f-a923-d1f6d8b561e7}, ! Handle
  Component Data 1,                       ! Name
  {dade658d-f386-4b7e-b3ed-063544ccddb3}, ! UUID
  {df689801-8177-48a0-8461-d22e62ee0e06}, ! Version UUID
  1363981956,                             ! Creation Timestamp
  1363981956,                             ! Version Timestamp
  {b73fc536-3be0-4a4d-bb84-a8c2cb1b783a}, ! Name of Object 1
  {78f0e081-4ccb-411f-987e-262ff896d6f3}, ! Name of Object 2
  {b21f35fa-26c9-4727-82ad-ca9d3adb1249}, ! Name of Object 3
  {ee05a710-cef4-4e86-883d-9169d866bd6c}; ! Name of Object 4

