
OS:Version,
  {acdfcd5a-a931-4c99-b123-a8c64b2e639d}, ! Handle
  0.9.3;                                  ! Version Identifier

OS:Material,
  {39873606-1aca-4923-83d8-a875211b1de8}, ! Handle
  MAT-CC05 4 HW CONCRETE,                 ! Name
  Rough,                                  ! Roughness
  0.1016,                                 ! Thickness {m}
  1.311,                                  ! Conductivity {W/m-K}
  2240,                                   ! Density {kg/m3}
  836.8,                                  ! Specific Heat {J/kg-K}
  0.9,                                    ! Thermal Absorptance
  0.7,                                    ! Solar Absorptance
  0.7;                                    ! Visible Absorptance

OS:Construction,
  {a5565f7b-cee7-4fbb-9c88-49e260d6d276}, ! Handle
  AEDG-SmOffice 5B Ext Slab Unheated - 4in Slab with Carpet, ! Name
  ,                                       ! Surface Rendering Name
  {39873606-1aca-4923-83d8-a875211b1de8}, ! Layer 1
  {d14cc2a4-37c0-4a86-b357-c5a3f641d2dc}; ! Layer 2

OS:Material:NoMass,
  {d14cc2a4-37c0-4a86-b357-c5a3f641d2dc}, ! Handle
  CP02 CARPET PAD,                        ! Name
  VeryRough,                              ! Roughness
  0.21648,                                ! Thermal Resistance {m2-K/W}
  0.9,                                    ! Thermal Absorptance
  0.7,                                    ! Solar Absorptance
  0.8;                                    ! Visible Absorptance

OS:ComponentCost:LineItem,
  {c66a69df-e9a3-4d07-8dd7-6ede34ebb448}, ! Handle
  AEDG-SmOffice 5B Ext Slab Unheated - 4in Slab with Carpet, ! Name
  ,                                       ! Type
  Construction,                           ! Line Item Type
  AEDG-SmOffice 5B Ext Slab Unheated - 4in Slab with Carpet, ! Item Name
  ,                                       ! Object End Use Key
  ,                                       ! Quantity {dimensionless}
  45.52,                                  ! Material Cost {$}
  CostPerArea;                            ! Material Cost Units

