
OS:Version,
  {0e2b1fe3-bc89-4ba1-979a-f07adae1826d}, ! Handle
  0.9.3;                                  ! Version Identifier

OS:Construction,
  {00c54658-5074-4a9c-afe8-50572d66e60c}, ! Handle
  90.1-2004 Res 3C Ext Wall Metal Building, ! Name
  ,                                       ! Surface Rendering Name
  {cf94b46e-cd0c-4b5a-8ab8-fc5135123ae0}, ! Layer 1
  {09f75eba-29d0-41b7-b8f4-e5e94f56d4be}, ! Layer 2
  {8ff2878b-40f4-4831-a93f-cbd14224559c}; ! Layer 3

OS:Material,
  {cf94b46e-cd0c-4b5a-8ab8-fc5135123ae0}, ! Handle
  Metal Siding,                           ! Name
  Smooth,                                 ! Roughness
  0.0015,                                 ! Thickness {m}
  44.96,                                  ! Conductivity {W/m-K}
  7688.86,                                ! Density {kg/m3}
  410,                                    ! Specific Heat {J/kg-K}
  0.9,                                    ! Thermal Absorptance
  0.2,                                    ! Solar Absorptance
  0.2;                                    ! Visible Absorptance

OS:Material,
  {09f75eba-29d0-41b7-b8f4-e5e94f56d4be}, ! Handle
  Wall Insulation,                        ! Name
  MediumRough,                            ! Roughness
  0.0598725,                              ! Thickness {m}
  0.045,                                  ! Conductivity {W/m-K}
  265,                                    ! Density {kg/m3}
  836.8,                                  ! Specific Heat {J/kg-K}
  0.9,                                    ! Thermal Absorptance
  0.7,                                    ! Solar Absorptance
  0.7;                                    ! Visible Absorptance

OS:Material,
  {8ff2878b-40f4-4831-a93f-cbd14224559c}, ! Handle
  1/2IN Gypsum,                           ! Name
  Smooth,                                 ! Roughness
  0.01271,                                ! Thickness {m}
  0.16,                                   ! Conductivity {W/m-K}
  784.9,                                  ! Density {kg/m3}
  830,                                    ! Specific Heat {J/kg-K}
  0.9,                                    ! Thermal Absorptance
  0.92,                                   ! Solar Absorptance
  0.92;                                   ! Visible Absorptance

OS:ComponentCost:LineItem,
  {434347a5-8926-43df-8cc1-b693f8c26e9e}, ! Handle
  90.1-2004 Res 3C Ext Wall Metal Building, ! Name
  ,                                       ! Type
  Construction,                           ! Line Item Type
  90.1-2004 Res 3C Ext Wall Metal Building, ! Item Name
  ,                                       ! Object End Use Key
  ,                                       ! Quantity {dimensionless}
  98.78,                                  ! Material Cost {$}
  CostPerArea;                            ! Material Cost Units

