
OS:Version,
  {e4cb0df1-3bd1-4cdd-86af-42b81cb96a45}, ! Handle
  0.9.3;                                  ! Version Identifier

OS:Construction,
  {7f006ab6-9275-4c30-8e8f-b8c82ccdf121}, ! Handle
  90.1-2004 Res 3C Ext Wall Metal Building, ! Name
  ,                                       ! Surface Rendering Name
  {4741b2e3-63e9-4c29-842b-c391aee5cb60}, ! Layer 1
  {47146863-5ec6-44b2-990b-0ab970977373}, ! Layer 2
  {e4258e2b-7472-4252-97a8-1b725f0d2d6e}; ! Layer 3

OS:Material,
  {4741b2e3-63e9-4c29-842b-c391aee5cb60}, ! Handle
  Metal Siding,                           ! Name
  Smooth,                                 ! Roughness
  0.0015,                                 ! Thickness {m}
  44.96,                                  ! Conductivity {W/m-K}
  7688.86,                                ! Density {kg/m3}
  410,                                    ! Specific Heat {J/kg-K}
  0.9,                                    ! Thermal Absorptance
  0.2,                                    ! Solar Absorptance
  0.2;                                    ! Visible Absorptance

OS:Material,
  {47146863-5ec6-44b2-990b-0ab970977373}, ! Handle
  Wall Insulation,                        ! Name
  MediumRough,                            ! Roughness
  0.0598725,                              ! Thickness {m}
  0.045,                                  ! Conductivity {W/m-K}
  265,                                    ! Density {kg/m3}
  836.8,                                  ! Specific Heat {J/kg-K}
  0.9,                                    ! Thermal Absorptance
  0.7,                                    ! Solar Absorptance
  0.7;                                    ! Visible Absorptance

OS:Material,
  {e4258e2b-7472-4252-97a8-1b725f0d2d6e}, ! Handle
  1/2IN Gypsum,                           ! Name
  Smooth,                                 ! Roughness
  0.01271,                                ! Thickness {m}
  0.16,                                   ! Conductivity {W/m-K}
  784.9,                                  ! Density {kg/m3}
  830,                                    ! Specific Heat {J/kg-K}
  0.9,                                    ! Thermal Absorptance
  0.92,                                   ! Solar Absorptance
  0.92;                                   ! Visible Absorptance

OS:ComponentCost:LineItem,
  {2e89245d-a47b-4a85-a2e8-a42adfa7c0ec}, ! Handle
  90.1-2004 Res 3C Ext Wall Metal Building, ! Name
  ,                                       ! Type
  Construction,                           ! Line Item Type
  90.1-2004 Res 3C Ext Wall Metal Building, ! Item Name
  ,                                       ! Object End Use Key
  ,                                       ! Quantity {dimensionless}
  98.78,                                  ! Material Cost {$}
  CostPerArea;                            ! Material Cost Units

OS:ComponentData,
  {f0bf4bd5-2684-45e3-ae16-3d512e60b1e6}, ! Handle
  Component Data 1,                       ! Name
  {efc15478-f08a-4f8c-8ac8-76b6bdfbcf5a}, ! UUID
  {14b0b8d8-bd5c-4abf-afe6-c95b2ba77bb9}, ! Version UUID
  1363981731,                             ! Creation Timestamp
  1363981731,                             ! Version Timestamp
  {7f006ab6-9275-4c30-8e8f-b8c82ccdf121}, ! Name of Object 1
  {4741b2e3-63e9-4c29-842b-c391aee5cb60}, ! Name of Object 2
  {47146863-5ec6-44b2-990b-0ab970977373}, ! Name of Object 3
  {e4258e2b-7472-4252-97a8-1b725f0d2d6e}, ! Name of Object 4
  {2e89245d-a47b-4a85-a2e8-a42adfa7c0ec}; ! Name of Object 5

