
OS:Version,
  {5fa070cf-401f-4068-a7b5-ef2f82a8f369}, ! Handle
  0.9.3;                                  ! Version Identifier

OS:Construction,
  {1fc94367-c365-4218-8f0b-b12cf6be14e7}, ! Handle
  90.1-2007 Nonres 3A Window Metal framing all other, ! Name
  ,                                       ! Surface Rendering Name
  {d6d87e6a-f1ae-4dfa-88a9-0cd6d33f3107}; ! Layer 1

OS:WindowMaterial:Glazing,
  {d6d87e6a-f1ae-4dfa-88a9-0cd6d33f3107}, ! Handle
  Theoretical Glass [174],                ! Name
  SpectralAverage,                        ! Optical Data Type
  ,                                       ! Window Glass Spectral Data Set Name
  0.003,                                  ! Thickness {m}
  0.242714,                               ! Solar Transmittance at Normal Incidence
  0.707286,                               ! Front Side Solar Reflectance at Normal Incidence
  0.707286,                               ! Back Side Solar Reflectance at Normal Incidence
  0.319199,                               ! Visible Transmittance at Normal Incidence
  0.630801,                               ! Front Side Visible Reflectance at Normal Incidence
  0.630801,                               ! Back Side Visible Reflectance at Normal Incidence
  0,                                      ! Infrared Transmittance at Normal Incidence
  0.9,                                    ! Front Side Infrared Hemispherical Emissivity
  0.9,                                    ! Back Side Infrared Hemispherical Emissivity
  0.026242;                               ! Conductivity {W/m-K}

OS:ComponentCost:LineItem,
  {eca9a13f-bb9c-417f-a111-83f765eff72d}, ! Handle
  90.1-2007 Nonres 3A Window Metal framing all other, ! Name
  ,                                       ! Type
  Construction,                           ! Line Item Type
  90.1-2007 Nonres 3A Window Metal framing all other, ! Item Name
  ,                                       ! Object End Use Key
  ,                                       ! Quantity {dimensionless}
  563.991,                                ! Material Cost {$}
  CostPerArea;                            ! Material Cost Units

OS:ComponentData,
  {3cff02f3-9b1c-4084-8f67-b588e8d3c992}, ! Handle
  Component Data 1,                       ! Name
  {dc1579e7-abb7-4c45-b9f8-19df7275d8cd}, ! UUID
  {00ba56f6-550d-4c1f-ae15-5d1621eb05ca}, ! Version UUID
  1363981799,                             ! Creation Timestamp
  1363981799,                             ! Version Timestamp
  {1fc94367-c365-4218-8f0b-b12cf6be14e7}, ! Name of Object 1
  {d6d87e6a-f1ae-4dfa-88a9-0cd6d33f3107}, ! Name of Object 2
  {eca9a13f-bb9c-417f-a111-83f765eff72d}; ! Name of Object 3

