
OS:Version,
  {ba4b5129-7380-4ab3-9601-79db4e1bc05c}, ! Handle
  0.9.3;                                  ! Version Identifier

OS:Construction,
  {5a258017-a7cc-4a31-8546-40b2406a4365}, ! Handle
  90.1-2007 Nonres 2A Ext Slab Unheated - 8in Slab with Carpet, ! Name
  ,                                       ! Surface Rendering Name
  {a17b6ee8-ceec-4b14-88d2-ed5ecbaf0a2c}, ! Layer 1
  {af94f6a2-bedd-4b67-9e35-85f2dc99d36c}; ! Layer 2

OS:Material,
  {a17b6ee8-ceec-4b14-88d2-ed5ecbaf0a2c}, ! Handle
  MAT-CC05 8 HW CONCRETE,                 ! Name
  Rough,                                  ! Roughness
  0.20321,                                ! Thickness {m}
  1.311,                                  ! Conductivity {W/m-K}
  2240,                                   ! Density {kg/m3}
  836.8,                                  ! Specific Heat {J/kg-K}
  0.9,                                    ! Thermal Absorptance
  0.7,                                    ! Solar Absorptance
  0.7;                                    ! Visible Absorptance

OS:Material:NoMass,
  {af94f6a2-bedd-4b67-9e35-85f2dc99d36c}, ! Handle
  CP02 CARPET PAD,                        ! Name
  VeryRough,                              ! Roughness
  0.21648,                                ! Thermal Resistance {m2-K/W}
  0.9,                                    ! Thermal Absorptance
  0.7,                                    ! Solar Absorptance
  0.8;                                    ! Visible Absorptance

OS:ComponentCost:LineItem,
  {a857fd11-f37d-4701-b8d2-9b1ac1509fc3}, ! Handle
  90.1-2007 Nonres 2A Ext Slab Unheated - 8in Slab with Carpet, ! Name
  ,                                       ! Type
  Construction,                           ! Line Item Type
  90.1-2007 Nonres 2A Ext Slab Unheated - 8in Slab with Carpet, ! Item Name
  ,                                       ! Object End Use Key
  ,                                       ! Quantity {dimensionless}
  45.52,                                  ! Material Cost {$}
  CostPerArea;                            ! Material Cost Units

OS:ComponentData,
  {fb1e1707-7b05-47e6-8cbf-7218d353c808}, ! Handle
  Component Data 1,                       ! Name
  {62735b61-b432-4d4a-add5-503a037af3e8}, ! UUID
  {d1e54b43-aa29-42ed-8f75-5f0bf4447f13}, ! Version UUID
  1363981789,                             ! Creation Timestamp
  1363981789,                             ! Version Timestamp
  {5a258017-a7cc-4a31-8546-40b2406a4365}, ! Name of Object 1
  {a17b6ee8-ceec-4b14-88d2-ed5ecbaf0a2c}, ! Name of Object 2
  {af94f6a2-bedd-4b67-9e35-85f2dc99d36c}, ! Name of Object 3
  {a857fd11-f37d-4701-b8d2-9b1ac1509fc3}; ! Name of Object 4

