
OS:Version,
  {fc8bac85-de03-485c-96bf-4948d2474c26}, ! Handle
  0.9.3;                                  ! Version Identifier

OS:Construction,
  {03bbe484-252d-40f7-afb1-3d04385a20fa}, ! Handle
  90.1-2007 Nonres 5B Exposed Floor Mass, ! Name
  ,                                       ! Surface Rendering Name
  {842760b3-22be-410e-85ca-4f813f2806cb}, ! Layer 1
  {07cda73a-3ff1-47ed-89db-89861b928f42}, ! Layer 2
  {e6499e25-2177-41b4-be9b-9c249d911dcc}; ! Layer 3

OS:Material,
  {842760b3-22be-410e-85ca-4f813f2806cb}, ! Handle
  Floor Insulation [4],                   ! Name
  MediumRough,                            ! Roughness
  0.0795397,                              ! Thickness {m}
  0.045,                                  ! Conductivity {W/m-K}
  265,                                    ! Density {kg/m3}
  836.8,                                  ! Specific Heat {J/kg-K}
  0.9,                                    ! Thermal Absorptance
  0.7,                                    ! Solar Absorptance
  0.7;                                    ! Visible Absorptance

OS:Material,
  {07cda73a-3ff1-47ed-89db-89861b928f42}, ! Handle
  MAT-CC05 8 HW CONCRETE,                 ! Name
  Rough,                                  ! Roughness
  0.20321,                                ! Thickness {m}
  1.311,                                  ! Conductivity {W/m-K}
  2240,                                   ! Density {kg/m3}
  836.8,                                  ! Specific Heat {J/kg-K}
  0.9,                                    ! Thermal Absorptance
  0.7,                                    ! Solar Absorptance
  0.7;                                    ! Visible Absorptance

OS:Material:NoMass,
  {e6499e25-2177-41b4-be9b-9c249d911dcc}, ! Handle
  CP02 CARPET PAD,                        ! Name
  VeryRough,                              ! Roughness
  0.21648,                                ! Thermal Resistance {m2-K/W}
  0.9,                                    ! Thermal Absorptance
  0.7,                                    ! Solar Absorptance
  0.8;                                    ! Visible Absorptance

OS:ComponentCost:LineItem,
  {5d19182a-7a0c-4d6a-b4d1-8ba5f2084792}, ! Handle
  90.1-2007 Nonres 5B Exposed Floor Mass, ! Name
  ,                                       ! Type
  Construction,                           ! Line Item Type
  90.1-2007 Nonres 5B Exposed Floor Mass, ! Item Name
  ,                                       ! Object End Use Key
  ,                                       ! Quantity {dimensionless}
  51.754,                                 ! Material Cost {$}
  CostPerArea;                            ! Material Cost Units

