
OS:Version,
  {967354d5-9530-4933-ab14-0d068c659669}, !- Handle
  1.1.0;                                  !- Version Identifier

OS:Construction,
  {60c19bf5-3446-449c-936e-63119a08eceb}, !- Handle
  Dbl LoE (e2=.1) Clr 3mm/6mm Air,        !- Name
  ,                                       !- Surface Rendering Name
  {75f33d7b-59d7-4629-875f-10f90ed3ba6d}, !- Layer 1
  {5c8c74f2-bf9f-4f40-b266-ca9b3edfad8a}, !- Layer 2
  {d3be5b5d-0c28-4dc6-bc26-aeeb72fb9356}; !- Layer 3

OS:WindowMaterial:Glazing,
  {75f33d7b-59d7-4629-875f-10f90ed3ba6d}, !- Handle
  LoE CLEAR 3MM,                          !- Name
  SpectralAverage,                        !- Optical Data Type
  ,                                       !- Window Glass Spectral Data Set Name
  0.003,                                  !- Thickness {m}
  0.63,                                   !- Solar Transmittance at Normal Incidence
  0.19,                                   !- Front Side Solar Reflectance at Normal Incidence
  0.22,                                   !- Back Side Solar Reflectance at Normal Incidence
  0.85,                                   !- Visible Transmittance at Normal Incidence
  0.056,                                  !- Front Side Visible Reflectance at Normal Incidence
  0.079,                                  !- Back Side Visible Reflectance at Normal Incidence
  0,                                      !- Infrared Transmittance at Normal Incidence
  0.84,                                   !- Front Side Infrared Hemispherical Emissivity
  0.1,                                    !- Back Side Infrared Hemispherical Emissivity
  0.9;                                    !- Conductivity {W/m-K}

OS:WindowMaterial:Gas,
  {5c8c74f2-bf9f-4f40-b266-ca9b3edfad8a}, !- Handle
  AIR 6MM,                                !- Name
  Air,                                    !- Gas Type
  0.0063;                                 !- Thickness {m}

OS:WindowMaterial:Glazing,
  {d3be5b5d-0c28-4dc6-bc26-aeeb72fb9356}, !- Handle
  CLEAR 3MM,                              !- Name
  SpectralAverage,                        !- Optical Data Type
  ,                                       !- Window Glass Spectral Data Set Name
  0.003,                                  !- Thickness {m}
  0.837,                                  !- Solar Transmittance at Normal Incidence
  0.075,                                  !- Front Side Solar Reflectance at Normal Incidence
  0.075,                                  !- Back Side Solar Reflectance at Normal Incidence
  0.898,                                  !- Visible Transmittance at Normal Incidence
  0.081,                                  !- Front Side Visible Reflectance at Normal Incidence
  0.081,                                  !- Back Side Visible Reflectance at Normal Incidence
  0,                                      !- Infrared Transmittance at Normal Incidence
  0.84,                                   !- Front Side Infrared Hemispherical Emissivity
  0.84,                                   !- Back Side Infrared Hemispherical Emissivity
  0.9;                                    !- Conductivity {W/m-K}

