
OS:Version,
  {b4f50715-1f1b-4228-bd12-2f78c1cabb2b}, ! Handle
  0.9.3;                                  ! Version Identifier

OS:ComponentCost:LineItem,
  {0562bcd3-cb93-4e85-b3bd-d8faf9af4315}, ! Handle
  90.1-2007 Res 8A Ext Wall Wood-Framed and Other, ! Name
  ,                                       ! Type
  Construction,                           ! Line Item Type
  90.1-2007 Res 8A Ext Wall Wood-Framed and Other, ! Item Name
  ,                                       ! Object End Use Key
  ,                                       ! Quantity {dimensionless}
  87.39,                                  ! Material Cost {$}
  CostPerArea;                            ! Material Cost Units

OS:Construction,
  {8dfe0c4e-ef54-4edb-ad97-61edb0e03bd0}, ! Handle
  90.1-2007 Res 8A Ext Wall Wood-Framed and Other, ! Name
  ,                                       ! Surface Rendering Name
  {da324b86-ceac-44cb-ae64-8d2c34d1fc63}, ! Layer 1
  {e123f95e-318e-4fec-9186-818e29573613}, ! Layer 2
  {bca570b0-8e38-4388-bdc4-afe233bb4b21}; ! Layer 3

OS:Material,
  {da324b86-ceac-44cb-ae64-8d2c34d1fc63}, ! Handle
  Wood Siding,                            ! Name
  MediumSmooth,                           ! Roughness
  0.01,                                   ! Thickness {m}
  0.11,                                   ! Conductivity {W/m-K}
  544.62,                                 ! Density {kg/m3}
  1210,                                   ! Specific Heat {J/kg-K}
  0.9,                                    ! Thermal Absorptance
  0.78,                                   ! Solar Absorptance
  0.78;                                   ! Visible Absorptance

OS:Material,
  {e123f95e-318e-4fec-9186-818e29573613}, ! Handle
  Wall Insulation [26],                   ! Name
  MediumRough,                            ! Roughness
  0.205789,                               ! Thickness {m}
  0.045,                                  ! Conductivity {W/m-K}
  265,                                    ! Density {kg/m3}
  836.8,                                  ! Specific Heat {J/kg-K}
  0.9,                                    ! Thermal Absorptance
  0.7,                                    ! Solar Absorptance
  0.7;                                    ! Visible Absorptance

OS:Material,
  {bca570b0-8e38-4388-bdc4-afe233bb4b21}, ! Handle
  1/2IN Gypsum,                           ! Name
  Smooth,                                 ! Roughness
  0.01271,                                ! Thickness {m}
  0.16,                                   ! Conductivity {W/m-K}
  784.9,                                  ! Density {kg/m3}
  830,                                    ! Specific Heat {J/kg-K}
  0.9,                                    ! Thermal Absorptance
  0.92,                                   ! Solar Absorptance
  0.92;                                   ! Visible Absorptance

