
OS:Version,
  {617da2bb-0936-4b44-8e0d-26b77de39a7c}, ! Handle
  0.9.3;                                  ! Version Identifier

OS:Construction,
  {068327bd-11b5-4057-8b34-53ff8d4d4199}, ! Handle
  Title 24-2008 Nonres 5 Window Fixed,    ! Name
  ,                                       ! Surface Rendering Name
  {5567beae-e90e-419b-a7e7-14e9e9f39a62}; ! Layer 1

OS:WindowMaterial:Glazing,
  {5567beae-e90e-419b-a7e7-14e9e9f39a62}, ! Handle
  Theoretical Glass [678],                ! Name
  SpectralAverage,                        ! Optical Data Type
  ,                                       ! Window Glass Spectral Data Set Name
  0.003,                                  ! Thickness {m}
  0.40093,                                ! Solar Transmittance at Normal Incidence
  0.54907,                                ! Front Side Solar Reflectance at Normal Incidence
  0.54907,                                ! Back Side Solar Reflectance at Normal Incidence
  0.410537,                               ! Visible Transmittance at Normal Incidence
  0.539463,                               ! Front Side Visible Reflectance at Normal Incidence
  0.539463,                               ! Back Side Visible Reflectance at Normal Incidence
  0,                                      ! Infrared Transmittance at Normal Incidence
  0.9,                                    ! Front Side Infrared Hemispherical Emissivity
  0.9,                                    ! Back Side Infrared Hemispherical Emissivity
  0.0406315;                              ! Conductivity {W/m-K}

OS:ComponentCost:LineItem,
  {f4f16b46-8dd8-4fc8-8868-4bccd35410da}, ! Handle
  Title 24-2008 Nonres 5 Window Fixed,    ! Name
  ,                                       ! Type
  Construction,                           ! Line Item Type
  Title 24-2008 Nonres 5 Window Fixed,    ! Item Name
  ,                                       ! Object End Use Key
  ,                                       ! Quantity {dimensionless}
  511.59,                                 ! Material Cost {$}
  CostPerArea;                            ! Material Cost Units

