
OS:Version,
  {48d6515f-6dfd-4dc3-9fe6-ac758bc1e3a4}, ! Handle
  0.9.3;                                  ! Version Identifier

OS:Material,
  {e50a9a31-f073-4a61-989e-a98a9fb1e002}, ! Handle
  MAT-CC05 8 HW CONCRETE,                 ! Name
  Rough,                                  ! Roughness
  0.20321,                                ! Thickness {m}
  1.311,                                  ! Conductivity {W/m-K}
  2240,                                   ! Density {kg/m3}
  836.8,                                  ! Specific Heat {J/kg-K}
  0.9,                                    ! Thermal Absorptance
  0.7,                                    ! Solar Absorptance
  0.7;                                    ! Visible Absorptance

OS:ComponentCost:LineItem,
  {5c389258-df73-4e21-9254-682c5f4c14cf}, ! Handle
  189.1-2009 Nonres 4B Exposed Floor Mass, ! Name
  ,                                       ! Type
  Construction,                           ! Line Item Type
  189.1-2009 Nonres 4B Exposed Floor Mass, ! Item Name
  ,                                       ! Object End Use Key
  ,                                       ! Quantity {dimensionless}
  51.754,                                 ! Material Cost {$}
  CostPerArea;                            ! Material Cost Units

OS:Material:NoMass,
  {d286a1d6-3e9d-40f9-80b4-38dd93b72de5}, ! Handle
  CP02 CARPET PAD,                        ! Name
  VeryRough,                              ! Roughness
  0.21648,                                ! Thermal Resistance {m2-K/W}
  0.9,                                    ! Thermal Absorptance
  0.7,                                    ! Solar Absorptance
  0.8;                                    ! Visible Absorptance

OS:Construction,
  {7ee7fb4d-88f1-4d1b-8db8-9b09b07ec92b}, ! Handle
  189.1-2009 Nonres 4B Exposed Floor Mass, ! Name
  ,                                       ! Surface Rendering Name
  {832800ed-22af-47cd-82dd-f1d71455bd66}, ! Layer 1
  {e50a9a31-f073-4a61-989e-a98a9fb1e002}, ! Layer 2
  {d286a1d6-3e9d-40f9-80b4-38dd93b72de5}; ! Layer 3

OS:Material,
  {832800ed-22af-47cd-82dd-f1d71455bd66}, ! Handle
  Floor Insulation [4],                   ! Name
  MediumRough,                            ! Roughness
  0.0795397,                              ! Thickness {m}
  0.045,                                  ! Conductivity {W/m-K}
  265,                                    ! Density {kg/m3}
  836.8,                                  ! Specific Heat {J/kg-K}
  0.9,                                    ! Thermal Absorptance
  0.7,                                    ! Solar Absorptance
  0.7;                                    ! Visible Absorptance

