
OS:Version,
  {a2964b2d-3902-449e-99d6-dea88f781012}, ! Handle
  0.9.3;                                  ! Version Identifier

OS:Material,
  {52cb40a1-a34c-4d4c-ac64-3e95d6b14341}, ! Handle
  1/2IN Gypsum Bottom,                    ! Name
  Smooth,                                 ! Roughness
  0.01271,                                ! Thickness {m}
  0.16,                                   ! Conductivity {W/m-K}
  784.9,                                  ! Density {kg/m3}
  830,                                    ! Specific Heat {J/kg-K}
  0.9,                                    ! Thermal Absorptance
  0.92,                                   ! Solar Absorptance
  0.92;                                   ! Visible Absorptance

OS:Material,
  {f9677ac5-396b-4e28-b345-619e2772246b}, ! Handle
  1/2IN Gypsum Top,                       ! Name
  Smooth,                                 ! Roughness
  0.01271,                                ! Thickness {m}
  0.16,                                   ! Conductivity {W/m-K}
  784.9,                                  ! Density {kg/m3}
  830,                                    ! Specific Heat {J/kg-K}
  0.9,                                    ! Thermal Absorptance
  0.92,                                   ! Solar Absorptance
  0.92;                                   ! Visible Absorptance

OS:Material,
  {9104f37b-ef69-49d9-89d9-ad7b12e26792}, ! Handle
  AtticFloor Insulation [1],              ! Name
  MediumRough,                            ! Roughness
  0.303719,                               ! Thickness {m}
  0.049,                                  ! Conductivity {W/m-K}
  265,                                    ! Density {kg/m3}
  836.8,                                  ! Specific Heat {J/kg-K}
  0.9,                                    ! Thermal Absorptance
  0.7,                                    ! Solar Absorptance
  0.7;                                    ! Visible Absorptance

OS:ComponentCost:LineItem,
  {7f5e9567-7495-4cd3-9312-3f31738c4baa}, ! Handle
  AEDG K12 Nonres 8A Attic Floor,         ! Name
  ,                                       ! Type
  Construction,                           ! Line Item Type
  AEDG K12 Nonres 8A Attic Floor,         ! Item Name
  ,                                       ! Object End Use Key
  ,                                       ! Quantity {dimensionless}
  35.009,                                 ! Material Cost {$}
  CostPerArea;                            ! Material Cost Units

OS:Construction,
  {2fd87f2a-6d46-45b0-976b-35fe91811961}, ! Handle
  AEDG K12 Nonres 8A Attic Floor,         ! Name
  ,                                       ! Surface Rendering Name
  {f9677ac5-396b-4e28-b345-619e2772246b}, ! Layer 1
  {9104f37b-ef69-49d9-89d9-ad7b12e26792}, ! Layer 2
  {52cb40a1-a34c-4d4c-ac64-3e95d6b14341}; ! Layer 3

