
OS:Version,
  {279e539c-4380-4dc1-a43e-a6840d059301}, ! Handle
  0.9.3;                                  ! Version Identifier

OS:ComponentCost:LineItem,
  {2305ec4c-d267-460d-8be9-d32f2e017d37}, ! Handle
  90.1-2007 Nonres 1A Attic Floor,        ! Name
  ,                                       ! Type
  Construction,                           ! Line Item Type
  90.1-2007 Nonres 1A Attic Floor,        ! Item Name
  ,                                       ! Object End Use Key
  ,                                       ! Quantity {dimensionless}
  33.596,                                 ! Material Cost {$}
  CostPerArea;                            ! Material Cost Units

OS:Material,
  {76728fdd-2389-4cca-a0b3-25046d3226ea}, ! Handle
  1/2IN Gypsum Bottom,                    ! Name
  Smooth,                                 ! Roughness
  0.01271,                                ! Thickness {m}
  0.16,                                   ! Conductivity {W/m-K}
  784.9,                                  ! Density {kg/m3}
  830,                                    ! Specific Heat {J/kg-K}
  0.9,                                    ! Thermal Absorptance
  0.92,                                   ! Solar Absorptance
  0.92;                                   ! Visible Absorptance

OS:Material,
  {e38b529d-ae0d-4ac8-8389-9c7de06b40b1}, ! Handle
  1/2IN Gypsum Top,                       ! Name
  Smooth,                                 ! Roughness
  0.01271,                                ! Thickness {m}
  0.16,                                   ! Conductivity {W/m-K}
  784.9,                                  ! Density {kg/m3}
  830,                                    ! Specific Heat {J/kg-K}
  0.9,                                    ! Thermal Absorptance
  0.92,                                   ! Solar Absorptance
  0.92;                                   ! Visible Absorptance

OS:Construction,
  {b82f3f6c-f32b-46d0-8183-ed8880218545}, ! Handle
  90.1-2007 Nonres 1A Attic Floor,        ! Name
  ,                                       ! Surface Rendering Name
  {e38b529d-ae0d-4ac8-8389-9c7de06b40b1}, ! Layer 1
  {3c1ed19f-9f46-42d7-9f67-a2453dd2bb2c}, ! Layer 2
  {76728fdd-2389-4cca-a0b3-25046d3226ea}; ! Layer 3

OS:Material,
  {3c1ed19f-9f46-42d7-9f67-a2453dd2bb2c}, ! Handle
  AtticFloor Insulation,                  ! Name
  MediumRough,                            ! Roughness
  0.237853,                               ! Thickness {m}
  0.049,                                  ! Conductivity {W/m-K}
  265,                                    ! Density {kg/m3}
  836.8,                                  ! Specific Heat {J/kg-K}
  0.9,                                    ! Thermal Absorptance
  0.7,                                    ! Solar Absorptance
  0.7;                                    ! Visible Absorptance

