
OS:Version,
  {03195db9-f9fb-4ac2-b106-90654b2a32bb}, ! Handle
  0.9.3;                                  ! Version Identifier

OS:Construction,
  {43c9a841-194e-4a31-bd70-2b006b350508}, ! Handle
  Title 24-2008 Nonres 12 Skylight Glass Skylight with Curb, ! Name
  ,                                       ! Surface Rendering Name
  {8a01b230-9eab-4ad6-8b1d-1603f0df1b18}; ! Layer 1

OS:WindowMaterial:Glazing,
  {8a01b230-9eab-4ad6-8b1d-1603f0df1b18}, ! Handle
  Theoretical Glass [665],                ! Name
  SpectralAverage,                        ! Optical Data Type
  ,                                       ! Window Glass Spectral Data Set Name
  0.003,                                  ! Thickness {m}
  0.347698,                               ! Solar Transmittance at Normal Incidence
  0.602302,                               ! Front Side Solar Reflectance at Normal Incidence
  0.602302,                               ! Back Side Solar Reflectance at Normal Incidence
  0.360158,                               ! Visible Transmittance at Normal Incidence
  0.589842,                               ! Front Side Visible Reflectance at Normal Incidence
  0.589842,                               ! Back Side Visible Reflectance at Normal Incidence
  0,                                      ! Infrared Transmittance at Normal Incidence
  0.91,                                   ! Front Side Infrared Hemispherical Emissivity
  0.91,                                   ! Back Side Infrared Hemispherical Emissivity
  0.387053;                               ! Conductivity {W/m-K}

OS:ComponentCost:LineItem,
  {7091dd47-c3ae-4641-b6b6-6a4a0fc6c380}, ! Handle
  Title 24-2008 Nonres 12 Skylight Glass Skylight with Curb, ! Name
  ,                                       ! Type
  Construction,                           ! Line Item Type
  Title 24-2008 Nonres 12 Skylight Glass Skylight with Curb, ! Item Name
  ,                                       ! Object End Use Key
  ,                                       ! Quantity {dimensionless}
  480.601,                                ! Material Cost {$}
  CostPerArea;                            ! Material Cost Units

