
OS:Version,
  {1463eaa5-f0fd-4b07-95e8-ef9f4e0e8259}, ! Handle
  0.9.3;                                  ! Version Identifier

OS:Material,
  {8210ec63-6ac0-4730-9189-542d275114f6}, ! Handle
  MAT-CC05 8 HW CONCRETE,                 ! Name
  Rough,                                  ! Roughness
  0.20321,                                ! Thickness {m}
  1.311,                                  ! Conductivity {W/m-K}
  2240,                                   ! Density {kg/m3}
  836.8,                                  ! Specific Heat {J/kg-K}
  0.9,                                    ! Thermal Absorptance
  0.7,                                    ! Solar Absorptance
  0.7;                                    ! Visible Absorptance

OS:Construction,
  {119cee54-f207-4df9-98fb-2c0a9d2e1934}, ! Handle
  90.1-1999 Res B21 Ext Slab Unheated - 8in Slab without Carpet, ! Name
  ,                                       ! Surface Rendering Name
  {8210ec63-6ac0-4730-9189-542d275114f6}; ! Layer 1

OS:ComponentCost:LineItem,
  {80126e77-a78c-4adc-8cb0-1b369e1a3e6a}, ! Handle
  90.1-1999 Res B21 Ext Slab Unheated - 8in Slab without Carpet, ! Name
  ,                                       ! Type
  Construction,                           ! Line Item Type
  90.1-1999 Res B21 Ext Slab Unheated - 8in Slab without Carpet, ! Item Name
  ,                                       ! Object End Use Key
  ,                                       ! Quantity {dimensionless}
  45.52,                                  ! Material Cost {$}
  CostPerArea;                            ! Material Cost Units

