
OS:Version,
  {f455a00e-4dc1-4c00-ad74-3cbfa6df38a3}, ! Handle
  0.9.3;                                  ! Version Identifier

OS:Material,
  {925581e8-5bc4-4d88-a244-35f8e6d7e65d}, ! Handle
  Metal Decking,                          ! Name
  MediumSmooth,                           ! Roughness
  0.001524,                               ! Thickness {m}
  45.006,                                 ! Conductivity {W/m-K}
  7680,                                   ! Density {kg/m3}
  418.4,                                  ! Specific Heat {J/kg-K}
  0.9,                                    ! Thermal Absorptance
  0.7,                                    ! Solar Absorptance
  0.3;                                    ! Visible Absorptance

OS:Construction,
  {72fb78aa-8b95-4c7a-be9d-2fba5c7550fa}, ! Handle
  90.1-2001 Nonres B18 Roof IEAD,         ! Name
  ,                                       ! Surface Rendering Name
  {df195113-558c-409c-a995-10f76b673c5e}, ! Layer 1
  {8825289b-f91a-400b-97a1-68771a17ac56}, ! Layer 2
  {925581e8-5bc4-4d88-a244-35f8e6d7e65d}; ! Layer 3

OS:Material,
  {df195113-558c-409c-a995-10f76b673c5e}, ! Handle
  Roof Membrane,                          ! Name
  VeryRough,                              ! Roughness
  0.0095,                                 ! Thickness {m}
  0.16,                                   ! Conductivity {W/m-K}
  1121.29,                                ! Density {kg/m3}
  1460,                                   ! Specific Heat {J/kg-K}
  0.9,                                    ! Thermal Absorptance
  0.7,                                    ! Solar Absorptance
  0.7;                                    ! Visible Absorptance

OS:Material,
  {8825289b-f91a-400b-97a1-68771a17ac56}, ! Handle
  Roof Insulation,                        ! Name
  MediumRough,                            ! Roughness
  0.124958,                               ! Thickness {m}
  0.049,                                  ! Conductivity {W/m-K}
  265,                                    ! Density {kg/m3}
  836.8,                                  ! Specific Heat {J/kg-K}
  0.9,                                    ! Thermal Absorptance
  0.7,                                    ! Solar Absorptance
  0.7;                                    ! Visible Absorptance

OS:ComponentCost:LineItem,
  {08ec2109-ff15-41bd-8386-62fffe9ad1a5}, ! Handle
  90.1-2001 Nonres B18 Roof IEAD,         ! Name
  ,                                       ! Type
  Construction,                           ! Line Item Type
  90.1-2001 Nonres B18 Roof IEAD,         ! Item Name
  ,                                       ! Object End Use Key
  ,                                       ! Quantity {dimensionless}
  49.208,                                 ! Material Cost {$}
  CostPerArea;                            ! Material Cost Units

