
OS:Version,
  {3d60daba-d436-4dcb-b491-cd000377ccbf}, ! Handle
  0.9.3;                                  ! Version Identifier

OS:Construction,
  {c529b526-8ad6-4806-b2a7-acac7ead0ea8}, ! Handle
  90.1-2001 Res B13 Roof Metal Building,  ! Name
  ,                                       ! Surface Rendering Name
  {165a1eef-031f-47fa-b3b8-607d75e4e69c}, ! Layer 1
  {3673b66b-ad88-43bc-a1a6-19467a33c87e}; ! Layer 2

OS:Material,
  {165a1eef-031f-47fa-b3b8-607d75e4e69c}, ! Handle
  Metal Roofing,                          ! Name
  MediumSmooth,                           ! Roughness
  0.001524,                               ! Thickness {m}
  45.006,                                 ! Conductivity {W/m-K}
  7680,                                   ! Density {kg/m3}
  418.4,                                  ! Specific Heat {J/kg-K}
  0.9,                                    ! Thermal Absorptance
  0.7,                                    ! Solar Absorptance
  0.3;                                    ! Visible Absorptance

OS:Material,
  {3673b66b-ad88-43bc-a1a6-19467a33c87e}, ! Handle
  Roof Insulation [1],                    ! Name
  MediumRough,                            ! Roughness
  0.123533,                               ! Thickness {m}
  0.049,                                  ! Conductivity {W/m-K}
  265,                                    ! Density {kg/m3}
  836.8,                                  ! Specific Heat {J/kg-K}
  0.9,                                    ! Thermal Absorptance
  0.7,                                    ! Solar Absorptance
  0.7;                                    ! Visible Absorptance

OS:ComponentCost:LineItem,
  {9b406ff3-4553-4b83-b58e-fbfc8928e824}, ! Handle
  90.1-2001 Res B13 Roof Metal Building,  ! Name
  ,                                       ! Type
  Construction,                           ! Line Item Type
  90.1-2001 Res B13 Roof Metal Building,  ! Item Name
  ,                                       ! Object End Use Key
  ,                                       ! Quantity {dimensionless}
  38.206,                                 ! Material Cost {$}
  CostPerArea;                            ! Material Cost Units

