
OS:Version,
  {ac10003b-7804-4a24-ae39-92ea610d68d9}, ! Handle
  0.9.3;                                  ! Version Identifier

OS:Material:NoMass,
  {5755344e-b4cb-417c-87b6-367fb73fc000}, ! Handle
  CP02 CARPET PAD EF,                     ! Name
  VeryRough,                              ! Roughness
  0.21648,                                ! Thermal Resistance {m2-K/W}
  0.9,                                    ! Thermal Absorptance
  0.7,                                    ! Solar Absorptance
  0.8;                                    ! Visible Absorptance

OS:Material,
  {68bfd0e5-6d20-4790-ae2a-c38a1789d907}, ! Handle
  MAT-CC05 8 HW CONCRETE,                 ! Name
  Rough,                                  ! Roughness
  0.20321,                                ! Thickness {m}
  1.311,                                  ! Conductivity {W/m-K}
  2240,                                   ! Density {kg/m3}
  836.8,                                  ! Specific Heat {J/kg-K}
  0.9,                                    ! Thermal Absorptance
  0.7,                                    ! Solar Absorptance
  0.7;                                    ! Visible Absorptance

OS:ComponentCost:LineItem,
  {36a670d6-dc1b-46bc-9d54-0dd93ceae006}, ! Handle
  AEDG K12 Nonres 5B Exposed Floor Mass,  ! Name
  ,                                       ! Type
  Construction,                           ! Line Item Type
  AEDG K12 Nonres 5B Exposed Floor Mass,  ! Item Name
  ,                                       ! Object End Use Key
  ,                                       ! Quantity {dimensionless}
  49.612,                                 ! Material Cost {$}
  CostPerArea;                            ! Material Cost Units

OS:Material,
  {44eeac2e-a48a-44c6-9583-ca7c2750616c}, ! Handle
  Floor Insulation [2],                   ! Name
  MediumRough,                            ! Roughness
  0.0635689,                              ! Thickness {m}
  0.045,                                  ! Conductivity {W/m-K}
  265,                                    ! Density {kg/m3}
  836.8,                                  ! Specific Heat {J/kg-K}
  0.9,                                    ! Thermal Absorptance
  0.7,                                    ! Solar Absorptance
  0.7;                                    ! Visible Absorptance

OS:Construction,
  {4c2f0da9-84fe-4d7e-8e3a-43e05ea83bd8}, ! Handle
  AEDG K12 Nonres 5B Exposed Floor Mass,  ! Name
  ,                                       ! Surface Rendering Name
  {44eeac2e-a48a-44c6-9583-ca7c2750616c}, ! Layer 1
  {68bfd0e5-6d20-4790-ae2a-c38a1789d907}, ! Layer 2
  {5755344e-b4cb-417c-87b6-367fb73fc000}; ! Layer 3

