
OS:Version,
  {7bbfa489-b324-41cb-ad3d-a19b7cad5fee}, ! Handle
  0.9.3;                                  ! Version Identifier

OS:Material,
  {cee62be8-16a7-4559-8640-174110f3d96c}, ! Handle
  MAT-CC05 8 HW CONCRETE,                 ! Name
  Rough,                                  ! Roughness
  0.20321,                                ! Thickness {m}
  1.311,                                  ! Conductivity {W/m-K}
  2240,                                   ! Density {kg/m3}
  836.8,                                  ! Specific Heat {J/kg-K}
  0.9,                                    ! Thermal Absorptance
  0.7,                                    ! Solar Absorptance
  0.7;                                    ! Visible Absorptance

OS:Construction,
  {747a273e-74bc-4786-9af8-e21fe670d356}, ! Handle
  90.1-2007 Nonres 6B Ext Slab Unheated - 8in Slab without Carpet, ! Name
  ,                                       ! Surface Rendering Name
  {cee62be8-16a7-4559-8640-174110f3d96c}; ! Layer 1

OS:ComponentCost:LineItem,
  {03f45632-b65a-46c6-82c9-4dc0bef57b0c}, ! Handle
  90.1-2007 Nonres 6B Ext Slab Unheated - 8in Slab without Carpet, ! Name
  ,                                       ! Type
  Construction,                           ! Line Item Type
  90.1-2007 Nonres 6B Ext Slab Unheated - 8in Slab without Carpet, ! Item Name
  ,                                       ! Object End Use Key
  ,                                       ! Quantity {dimensionless}
  45.52,                                  ! Material Cost {$}
  CostPerArea;                            ! Material Cost Units

