
OS:Version,
  {9fc75924-be5e-4f59-a98c-e494c599ef63}, ! Handle
  0.9.3;                                  ! Version Identifier

OS:Construction,
  {54a38edb-c14d-43ac-b869-3d62e5393c62}, ! Handle
  189.1-2009 Nonres 3A Window Metal framing entrance door, ! Name
  ,                                       ! Surface Rendering Name
  {3acc4ffd-5a53-4d9d-a1e0-6eb5c4a3387e}; ! Layer 1

OS:WindowMaterial:Glazing,
  {3acc4ffd-5a53-4d9d-a1e0-6eb5c4a3387e}, ! Handle
  Theoretical Glass [201],                ! Name
  SpectralAverage,                        ! Optical Data Type
  ,                                       ! Window Glass Spectral Data Set Name
  0.003,                                  ! Thickness {m}
  0.234922,                               ! Solar Transmittance at Normal Incidence
  0.715078,                               ! Front Side Solar Reflectance at Normal Incidence
  0.715078,                               ! Back Side Solar Reflectance at Normal Incidence
  0.319199,                               ! Visible Transmittance at Normal Incidence
  0.630801,                               ! Front Side Visible Reflectance at Normal Incidence
  0.630801,                               ! Back Side Visible Reflectance at Normal Incidence
  0,                                      ! Infrared Transmittance at Normal Incidence
  0.9,                                    ! Front Side Infrared Hemispherical Emissivity
  0.9,                                    ! Back Side Infrared Hemispherical Emissivity
  0.0516419;                              ! Conductivity {W/m-K}

OS:ComponentCost:LineItem,
  {762d7600-2742-4c3a-955c-c79cdba10ce4}, ! Handle
  189.1-2009 Nonres 3A Window Metal framing entrance door, ! Name
  ,                                       ! Type
  Construction,                           ! Line Item Type
  189.1-2009 Nonres 3A Window Metal framing entrance door, ! Item Name
  ,                                       ! Object End Use Key
  ,                                       ! Quantity {dimensionless}
  577.118,                                ! Material Cost {$}
  CostPerArea;                            ! Material Cost Units

