
OS:Version,
  {02cffeeb-7e38-45a3-a10a-662858e9963e}, ! Handle
  0.9.3;                                  ! Version Identifier

OS:Material,
  {2f1d3bf4-9abd-439d-a30a-81cc266f62ee}, ! Handle
  Wall Insulation [2],                    ! Name
  MediumRough,                            ! Roughness
  0.0746874,                              ! Thickness {m}
  0.045,                                  ! Conductivity {W/m-K}
  265,                                    ! Density {kg/m3}
  836.8,                                  ! Specific Heat {J/kg-K}
  0.9,                                    ! Thermal Absorptance
  0.7,                                    ! Solar Absorptance
  0.7;                                    ! Visible Absorptance

OS:Construction,
  {3f6acc20-7944-40ed-a565-264be358a487}, ! Handle
  90.1-1999 Nonres B13 Ext Wall Wood-Framed and Other, ! Name
  ,                                       ! Surface Rendering Name
  {60d12914-5eec-4ca2-8bad-e1f843944f45}, ! Layer 1
  {2f1d3bf4-9abd-439d-a30a-81cc266f62ee}, ! Layer 2
  {b7739286-0a53-4cac-b33e-0f20e4b58ee2}; ! Layer 3

OS:Material,
  {60d12914-5eec-4ca2-8bad-e1f843944f45}, ! Handle
  Wood Siding,                            ! Name
  MediumSmooth,                           ! Roughness
  0.01,                                   ! Thickness {m}
  0.11,                                   ! Conductivity {W/m-K}
  544.62,                                 ! Density {kg/m3}
  1210,                                   ! Specific Heat {J/kg-K}
  0.9,                                    ! Thermal Absorptance
  0.78,                                   ! Solar Absorptance
  0.78;                                   ! Visible Absorptance

OS:Material,
  {b7739286-0a53-4cac-b33e-0f20e4b58ee2}, ! Handle
  1/2IN Gypsum,                           ! Name
  Smooth,                                 ! Roughness
  0.01271,                                ! Thickness {m}
  0.16,                                   ! Conductivity {W/m-K}
  784.9,                                  ! Density {kg/m3}
  830,                                    ! Specific Heat {J/kg-K}
  0.9,                                    ! Thermal Absorptance
  0.92,                                   ! Solar Absorptance
  0.92;                                   ! Visible Absorptance

OS:ComponentCost:LineItem,
  {a00cac10-6495-403c-a37c-6dbfce356dcd}, ! Handle
  90.1-1999 Nonres B13 Ext Wall Wood-Framed and Other, ! Name
  ,                                       ! Type
  Construction,                           ! Line Item Type
  90.1-1999 Nonres B13 Ext Wall Wood-Framed and Other, ! Item Name
  ,                                       ! Object End Use Key
  ,                                       ! Quantity {dimensionless}
  73.056,                                 ! Material Cost {$}
  CostPerArea;                            ! Material Cost Units

