
OS:Version,
  {2a9d97c5-45b1-433e-ae3c-65cc0239495f}, ! Handle
  0.9.3;                                  ! Version Identifier

OS:Material,
  {e10f8779-becf-4066-8344-77abb45f9fdf}, ! Handle
  Wood Shingles,                          ! Name
  VeryRough,                              ! Roughness
  0.0178,                                 ! Thickness {m}
  0.115,                                  ! Conductivity {W/m-K}
  513,                                    ! Density {kg/m3}
  1255,                                   ! Specific Heat {J/kg-K}
  0.9,                                    ! Thermal Absorptance
  0.78,                                   ! Solar Absorptance
  0.78;                                   ! Visible Absorptance

OS:Material,
  {2c0efa03-e293-4a3c-bd01-a503c3e796a1}, ! Handle
  1/2IN Gypsum,                           ! Name
  Smooth,                                 ! Roughness
  0.01271,                                ! Thickness {m}
  0.16,                                   ! Conductivity {W/m-K}
  784.9,                                  ! Density {kg/m3}
  830,                                    ! Specific Heat {J/kg-K}
  0.9,                                    ! Thermal Absorptance
  0.92,                                   ! Solar Absorptance
  0.92;                                   ! Visible Absorptance

OS:ComponentCost:LineItem,
  {8524273e-3a5c-420a-a076-a266230a6e35}, ! Handle
  90.1-1999 Res B18 Roof Attic and Other, ! Name
  ,                                       ! Type
  Construction,                           ! Line Item Type
  90.1-1999 Res B18 Roof Attic and Other, ! Item Name
  ,                                       ! Object End Use Key
  ,                                       ! Quantity {dimensionless}
  33.39,                                  ! Material Cost {$}
  CostPerArea;                            ! Material Cost Units

OS:Construction,
  {19ec5f5a-9b3a-4de2-8400-508b071fee2b}, ! Handle
  90.1-1999 Res B18 Roof Attic and Other, ! Name
  ,                                       ! Surface Rendering Name
  {e10f8779-becf-4066-8344-77abb45f9fdf}, ! Layer 1
  {e151083e-00df-4246-bd2e-05a43f41ebc3}, ! Layer 2
  {15cd340d-4996-4146-a977-3bbfd76ba7d5}, ! Layer 3
  {2c0efa03-e293-4a3c-bd01-a503c3e796a1}; ! Layer 4

OS:Material,
  {e151083e-00df-4246-bd2e-05a43f41ebc3}, ! Handle
  1IN Wood Decking,                       ! Name
  MediumSmooth,                           ! Roughness
  0.0254,                                 ! Thickness {m}
  0.1211,                                 ! Conductivity {W/m-K}
  593,                                    ! Density {kg/m3}
  2510,                                   ! Specific Heat {J/kg-K}
  0.9,                                    ! Thermal Absorptance
  0.78,                                   ! Solar Absorptance
  0.78;                                   ! Visible Absorptance

OS:Material,
  {15cd340d-4996-4146-a977-3bbfd76ba7d5}, ! Handle
  Roof Insulation [2],                    ! Name
  MediumRough,                            ! Roughness
  0.221604,                               ! Thickness {m}
  0.049,                                  ! Conductivity {W/m-K}
  265,                                    ! Density {kg/m3}
  836.8,                                  ! Specific Heat {J/kg-K}
  0.9,                                    ! Thermal Absorptance
  0.7,                                    ! Solar Absorptance
  0.7;                                    ! Visible Absorptance

