
! 
OS:Version,
  {8503bb35-3288-4176-9c41-752f3d976c4b}, !- Handle
  1.13.0;                                 !- Version Identifier


! 
OS:Material,
  {4e461ecc-beb0-4bfe-af77-3636b0efeee1}, !- Handle
  Aislamiento: SATE
WEBER: weber.therm placa PF 80 (0.080 m)
R: 4.0 m2K/W,                             !- Name
  MediumRough,                                 !- Roughness
  0.08,                                    !- Thickness {m}
  0.02,                                    !- Conductivity {W/m-K}
  35.0,                                    !- Density {kg/m3}
  800.0,                                    !- Specific Heat {J/kg-K}
  0.9,                                    !- Thermal Absorptance
  0.6,                                    !- Solar Absorptance
  0.6;                                    !- Visible Absorptance

