
OS:Version,
  {d3677e6e-32a4-4249-a0af-8f18682c9f90}, ! Handle
  0.9.3;                                  ! Version Identifier

OS:Material,
  {d0d3dc25-8954-4df8-b5dc-df7b65e93859}, ! Handle
  Wall Insulation [52],                   ! Name
  MediumRough,                            ! Roughness
  0.113464,                               ! Thickness {m}
  0.045,                                  ! Conductivity {W/m-K}
  265,                                    ! Density {kg/m3}
  836.8,                                  ! Specific Heat {J/kg-K}
  0.9,                                    ! Thermal Absorptance
  0.7,                                    ! Solar Absorptance
  0.7;                                    ! Visible Absorptance

OS:ComponentCost:LineItem,
  {f82d99df-5b84-45ee-b768-1983e194ef39}, ! Handle
  AEDG-SmOffice 5B Ext Wall Spandrel,     ! Name
  ,                                       ! Type
  Construction,                           ! Line Item Type
  AEDG-SmOffice 5B Ext Wall Spandrel,     ! Item Name
  ,                                       ! Object End Use Key
  ,                                       ! Quantity {dimensionless}
  80.18,                                  ! Material Cost {$}
  CostPerArea;                            ! Material Cost Units

OS:Material,
  {c3a8ead0-cdbd-4c50-9bf7-bf79ec8dbc57}, ! Handle
  1/2IN Gypsum,                           ! Name
  Smooth,                                 ! Roughness
  0.01271,                                ! Thickness {m}
  0.16,                                   ! Conductivity {W/m-K}
  784.9,                                  ! Density {kg/m3}
  830,                                    ! Specific Heat {J/kg-K}
  0.9,                                    ! Thermal Absorptance
  0.92,                                   ! Solar Absorptance
  0.92;                                   ! Visible Absorptance

OS:Construction,
  {f85585ef-2921-4808-9a9b-aab98d4d8f55}, ! Handle
  AEDG-SmOffice 5B Ext Wall Spandrel,     ! Name
  ,                                       ! Surface Rendering Name
  {c3dff760-278d-43d5-988e-431ac4dc256f}, ! Layer 1
  {d0d3dc25-8954-4df8-b5dc-df7b65e93859}, ! Layer 2
  {c3a8ead0-cdbd-4c50-9bf7-bf79ec8dbc57}; ! Layer 3

OS:Material,
  {c3dff760-278d-43d5-988e-431ac4dc256f}, ! Handle
  SpandrelGlass,                          ! Name
  Smooth,                                 ! Roughness
  0.007,                                  ! Thickness {m}
  45.31,                                  ! Conductivity {W/m-K}
  7833.02,                                ! Density {kg/m3}
  500,                                    ! Specific Heat {J/kg-K}
  0.9,                                    ! Thermal Absorptance
  0.23,                                   ! Solar Absorptance
  0.23;                                   ! Visible Absorptance

