
OS:Version,
  {08527eff-fcdd-4c7a-8bbf-6db13417bbd2}, ! Handle
  0.9.3;                                  ! Version Identifier

OS:Construction,
  {db967a05-06b9-4280-8333-a12eced76632}, ! Handle
  AEDG-SmOffice 5B Ext Wall Spandrel,     ! Name
  ,                                       ! Surface Rendering Name
  {13463d79-eacd-43df-a8a3-eee1bad1c4df}, ! Layer 1
  {d58e075b-6a0d-4dea-ab31-583eb6a2c831}, ! Layer 2
  {8d226fee-f818-4a63-834a-77a1c483f3ed}; ! Layer 3

OS:Material,
  {13463d79-eacd-43df-a8a3-eee1bad1c4df}, ! Handle
  SpandrelGlass,                          ! Name
  Smooth,                                 ! Roughness
  0.007,                                  ! Thickness {m}
  45.31,                                  ! Conductivity {W/m-K}
  7833.02,                                ! Density {kg/m3}
  500,                                    ! Specific Heat {J/kg-K}
  0.9,                                    ! Thermal Absorptance
  0.23,                                   ! Solar Absorptance
  0.23;                                   ! Visible Absorptance

OS:Material,
  {d58e075b-6a0d-4dea-ab31-583eb6a2c831}, ! Handle
  Wall Insulation [52],                   ! Name
  MediumRough,                            ! Roughness
  0.113464,                               ! Thickness {m}
  0.045,                                  ! Conductivity {W/m-K}
  265,                                    ! Density {kg/m3}
  836.8,                                  ! Specific Heat {J/kg-K}
  0.9,                                    ! Thermal Absorptance
  0.7,                                    ! Solar Absorptance
  0.7;                                    ! Visible Absorptance

OS:Material,
  {8d226fee-f818-4a63-834a-77a1c483f3ed}, ! Handle
  1/2IN Gypsum,                           ! Name
  Smooth,                                 ! Roughness
  0.01271,                                ! Thickness {m}
  0.16,                                   ! Conductivity {W/m-K}
  784.9,                                  ! Density {kg/m3}
  830,                                    ! Specific Heat {J/kg-K}
  0.9,                                    ! Thermal Absorptance
  0.92,                                   ! Solar Absorptance
  0.92;                                   ! Visible Absorptance

OS:ComponentCost:LineItem,
  {941270d6-d0ca-4402-b4bf-9eb6b453b78e}, ! Handle
  AEDG-SmOffice 5B Ext Wall Spandrel,     ! Name
  ,                                       ! Type
  Construction,                           ! Line Item Type
  AEDG-SmOffice 5B Ext Wall Spandrel,     ! Item Name
  ,                                       ! Object End Use Key
  ,                                       ! Quantity {dimensionless}
  80.18,                                  ! Material Cost {$}
  CostPerArea;                            ! Material Cost Units

OS:ComponentData,
  {ef1824db-dee9-4581-803a-8a7f12be462f}, ! Handle
  Component Data 1,                       ! Name
  {c011cebe-5ffd-4857-96c7-f881f135513e}, ! UUID
  {b7e96c0e-3fec-4258-b993-5edeaf082786}, ! Version UUID
  1363981955,                             ! Creation Timestamp
  1363981955,                             ! Version Timestamp
  {db967a05-06b9-4280-8333-a12eced76632}, ! Name of Object 1
  {13463d79-eacd-43df-a8a3-eee1bad1c4df}, ! Name of Object 2
  {d58e075b-6a0d-4dea-ab31-583eb6a2c831}, ! Name of Object 3
  {8d226fee-f818-4a63-834a-77a1c483f3ed}, ! Name of Object 4
  {941270d6-d0ca-4402-b4bf-9eb6b453b78e}; ! Name of Object 5

