
OS:Version,
  {f1da24ae-84f5-4b31-a07c-90812747125a}, ! Handle
  0.9.3;                                  ! Version Identifier

OS:Construction,
  {f2766815-2c4a-41e9-82e6-6dbe5fcff84a}, ! Handle
  Title 24-2008 Nonres 3 Ext Wall Wood-Framed and Other, ! Name
  ,                                       ! Surface Rendering Name
  {eec8d43d-0a49-407d-a8e8-af92dbadad60}, ! Layer 1
  {a900f869-4ec7-4214-a4b8-f949bb71854b}, ! Layer 2
  {79426dbd-257c-4ec4-96dc-7a2c8266f446}; ! Layer 3

OS:Material,
  {eec8d43d-0a49-407d-a8e8-af92dbadad60}, ! Handle
  Wood Siding,                            ! Name
  MediumSmooth,                           ! Roughness
  0.01,                                   ! Thickness {m}
  0.11,                                   ! Conductivity {W/m-K}
  544.62,                                 ! Density {kg/m3}
  1210,                                   ! Specific Heat {J/kg-K}
  0.9,                                    ! Thermal Absorptance
  0.78,                                   ! Solar Absorptance
  0.78;                                   ! Visible Absorptance

OS:Material,
  {a900f869-4ec7-4214-a4b8-f949bb71854b}, ! Handle
  Wall Insulation [159],                  ! Name
  MediumRough,                            ! Roughness
  0.0812,                                 ! Thickness {m}
  0.045,                                  ! Conductivity {W/m-K}
  265,                                    ! Density {kg/m3}
  836.8,                                  ! Specific Heat {J/kg-K}
  0.9,                                    ! Thermal Absorptance
  0.7,                                    ! Solar Absorptance
  0.7;                                    ! Visible Absorptance

OS:Material,
  {79426dbd-257c-4ec4-96dc-7a2c8266f446}, ! Handle
  1/2IN Gypsum,                           ! Name
  Smooth,                                 ! Roughness
  0.01271,                                ! Thickness {m}
  0.16,                                   ! Conductivity {W/m-K}
  784.9,                                  ! Density {kg/m3}
  830,                                    ! Specific Heat {J/kg-K}
  0.9,                                    ! Thermal Absorptance
  0.92,                                   ! Solar Absorptance
  0.92;                                   ! Visible Absorptance

OS:ComponentCost:LineItem,
  {3fd22286-c5cd-46cf-b1d1-9b634e8480dc}, ! Handle
  Title 24-2008 Nonres 3 Ext Wall Wood-Framed and Other, ! Name
  ,                                       ! Type
  Construction,                           ! Line Item Type
  Title 24-2008 Nonres 3 Ext Wall Wood-Framed and Other, ! Item Name
  ,                                       ! Object End Use Key
  ,                                       ! Quantity {dimensionless}
  140.526,                                ! Material Cost {$}
  CostPerArea;                            ! Material Cost Units

