
OS:Version,
  {93eb70f6-677f-41c8-8fc0-2d1989acf2b9}, ! Handle
  0.9.3;                                  ! Version Identifier

OS:Material,
  {69293300-c88a-4757-ac04-1f56e7e319d7}, ! Handle
  Wall Insulation,                        ! Name
  MediumRough,                            ! Roughness
  0.0598725,                              ! Thickness {m}
  0.045,                                  ! Conductivity {W/m-K}
  265,                                    ! Density {kg/m3}
  836.8,                                  ! Specific Heat {J/kg-K}
  0.9,                                    ! Thermal Absorptance
  0.7,                                    ! Solar Absorptance
  0.7;                                    ! Visible Absorptance

OS:Material,
  {a8faa2ad-4e1d-452a-8c1a-c2f47bb3d6bf}, ! Handle
  1/2IN Gypsum,                           ! Name
  Smooth,                                 ! Roughness
  0.01271,                                ! Thickness {m}
  0.16,                                   ! Conductivity {W/m-K}
  784.9,                                  ! Density {kg/m3}
  830,                                    ! Specific Heat {J/kg-K}
  0.9,                                    ! Thermal Absorptance
  0.92,                                   ! Solar Absorptance
  0.92;                                   ! Visible Absorptance

OS:ComponentCost:LineItem,
  {d4645004-ed6e-47dd-b032-2bf7d7e1ce44}, ! Handle
  90.1-1999 Nonres B16 Ext Wall Metal Building, ! Name
  ,                                       ! Type
  Construction,                           ! Line Item Type
  90.1-1999 Nonres B16 Ext Wall Metal Building, ! Item Name
  ,                                       ! Object End Use Key
  ,                                       ! Quantity {dimensionless}
  98.78,                                  ! Material Cost {$}
  CostPerArea;                            ! Material Cost Units

OS:Construction,
  {468477b0-82db-40d1-828d-0b429066f54d}, ! Handle
  90.1-1999 Nonres B16 Ext Wall Metal Building, ! Name
  ,                                       ! Surface Rendering Name
  {37a106bd-980b-485c-9299-5e96228a8453}, ! Layer 1
  {69293300-c88a-4757-ac04-1f56e7e319d7}, ! Layer 2
  {a8faa2ad-4e1d-452a-8c1a-c2f47bb3d6bf}; ! Layer 3

OS:Material,
  {37a106bd-980b-485c-9299-5e96228a8453}, ! Handle
  Metal Siding,                           ! Name
  Smooth,                                 ! Roughness
  0.0015,                                 ! Thickness {m}
  44.96,                                  ! Conductivity {W/m-K}
  7688.86,                                ! Density {kg/m3}
  410,                                    ! Specific Heat {J/kg-K}
  0.9,                                    ! Thermal Absorptance
  0.2,                                    ! Solar Absorptance
  0.2;                                    ! Visible Absorptance

