
OS:Version,
  {bbbfcc37-436b-4193-8e93-b73e4fad9927}, ! Handle
  0.9.3;                                  ! Version Identifier

OS:Construction,
  {0ed83282-c128-41d3-bdfc-6695467b2581}, ! Handle
  90.1-2007 Nonres 2A Ext Slab Unheated - 8in Slab without Carpet, ! Name
  ,                                       ! Surface Rendering Name
  {e35f415d-38e9-4731-b013-68d0f4f5b942}; ! Layer 1

OS:Material,
  {e35f415d-38e9-4731-b013-68d0f4f5b942}, ! Handle
  MAT-CC05 8 HW CONCRETE,                 ! Name
  Rough,                                  ! Roughness
  0.20321,                                ! Thickness {m}
  1.311,                                  ! Conductivity {W/m-K}
  2240,                                   ! Density {kg/m3}
  836.8,                                  ! Specific Heat {J/kg-K}
  0.9,                                    ! Thermal Absorptance
  0.7,                                    ! Solar Absorptance
  0.7;                                    ! Visible Absorptance

OS:ComponentCost:LineItem,
  {dd0e43be-f1c7-4f2d-b047-1a0ffaa2637e}, ! Handle
  90.1-2007 Nonres 2A Ext Slab Unheated - 8in Slab without Carpet, ! Name
  ,                                       ! Type
  Construction,                           ! Line Item Type
  90.1-2007 Nonres 2A Ext Slab Unheated - 8in Slab without Carpet, ! Item Name
  ,                                       ! Object End Use Key
  ,                                       ! Quantity {dimensionless}
  45.52,                                  ! Material Cost {$}
  CostPerArea;                            ! Material Cost Units

