
OS:Version,
  {ebc88315-6035-420a-a772-661c9042253c}, ! Handle
  0.9.3;                                  ! Version Identifier

OS:ComponentCost:LineItem,
  {d508da49-6187-4ab5-876d-91619d564a9c}, ! Handle
  90.1 Windows Window Fixed 2612 Vnl-Grn-Ins-Clr, ! Name
  ,                                       ! Type
  Construction,                           ! Line Item Type
  90.1 Windows Window Fixed 2612 Vnl-Grn-Ins-Clr, ! Item Name
  ,                                       ! Object End Use Key
  ,                                       ! Quantity {dimensionless}
  0,                                      ! Material Cost {$}
  CostPerArea;                            ! Material Cost Units

OS:Construction,
  {19c2cbc5-c5b6-43a8-800e-eb2884a045bb}, ! Handle
  90.1 Windows Window Fixed 2612 Vnl-Grn-Ins-Clr, ! Name
  ,                                       ! Surface Rendering Name
  {1e503375-b0ec-4786-93bc-3a948663d817}; ! Layer 1

OS:WindowMaterial:Glazing,
  {1e503375-b0ec-4786-93bc-3a948663d817}, ! Handle
  Theoretical Glass [338],                ! Name
  SpectralAverage,                        ! Optical Data Type
  ,                                       ! Window Glass Spectral Data Set Name
  0.003,                                  ! Thickness {m}
  0.423708,                               ! Solar Transmittance at Normal Incidence
  0.526292,                               ! Front Side Solar Reflectance at Normal Incidence
  0.526292,                               ! Back Side Solar Reflectance at Normal Incidence
  0.469723,                               ! Visible Transmittance at Normal Incidence
  0.480277,                               ! Front Side Visible Reflectance at Normal Incidence
  0.480277,                               ! Back Side Visible Reflectance at Normal Incidence
  0,                                      ! Infrared Transmittance at Normal Incidence
  0.9,                                    ! Front Side Infrared Hemispherical Emissivity
  0.9,                                    ! Back Side Infrared Hemispherical Emissivity
  0.0144853;                              ! Conductivity {W/m-K}

