
OS:Version,
  {80a0acf0-d033-43cf-85eb-590daeff3bd3}, ! Handle
  0.9.3;                                  ! Version Identifier

OS:Construction,
  {f849b9b7-41ee-4d1f-a6c4-58e1ea8ffb3f}, ! Handle
  Title 24-2008 Nonres 13 Ext Wall Mass,  ! Name
  ,                                       ! Surface Rendering Name
  {3b40f382-a4e0-4311-b520-6b4417dd5b1d}, ! Layer 1
  {eef50484-f27b-4efe-840e-408077feee14}, ! Layer 2
  {5939a0bf-3e39-45b3-b61e-4f1c9dd68437}, ! Layer 3
  {2b0334f2-be13-465f-9030-9d4d251fee79}; ! Layer 4

OS:Material,
  {3b40f382-a4e0-4311-b520-6b4417dd5b1d}, ! Handle
  1IN Stucco,                             ! Name
  Smooth,                                 ! Roughness
  0.0253,                                 ! Thickness {m}
  0.6918,                                 ! Conductivity {W/m-K}
  1858,                                   ! Density {kg/m3}
  837,                                    ! Specific Heat {J/kg-K}
  0.9,                                    ! Thermal Absorptance
  0.92,                                   ! Solar Absorptance
  0.92;                                   ! Visible Absorptance

OS:Material,
  {eef50484-f27b-4efe-840e-408077feee14}, ! Handle
  8IN Concrete HW,                        ! Name
  MediumRough,                            ! Roughness
  0.2033,                                 ! Thickness {m}
  1.7296,                                 ! Conductivity {W/m-K}
  2243,                                   ! Density {kg/m3}
  837,                                    ! Specific Heat {J/kg-K}
  0.9,                                    ! Thermal Absorptance
  0.65,                                   ! Solar Absorptance
  0.65;                                   ! Visible Absorptance

OS:Material,
  {5939a0bf-3e39-45b3-b61e-4f1c9dd68437}, ! Handle
  Wall Insulation [158],                  ! Name
  MediumRough,                            ! Roughness
  0.0509,                                 ! Thickness {m}
  0.0432,                                 ! Conductivity {W/m-K}
  91,                                     ! Density {kg/m3}
  837,                                    ! Specific Heat {J/kg-K}
  0.9,                                    ! Thermal Absorptance
  0.5,                                    ! Solar Absorptance
  0.5;                                    ! Visible Absorptance

OS:Material,
  {2b0334f2-be13-465f-9030-9d4d251fee79}, ! Handle
  1/2IN Gypsum,                           ! Name
  Smooth,                                 ! Roughness
  0.01271,                                ! Thickness {m}
  0.16,                                   ! Conductivity {W/m-K}
  784.9,                                  ! Density {kg/m3}
  830,                                    ! Specific Heat {J/kg-K}
  0.9,                                    ! Thermal Absorptance
  0.92,                                   ! Solar Absorptance
  0.92;                                   ! Visible Absorptance

OS:ComponentCost:LineItem,
  {f19ab86f-a1c4-464c-88ae-af53d3555383}, ! Handle
  Title 24-2008 Nonres 13 Ext Wall Mass,  ! Name
  ,                                       ! Type
  Construction,                           ! Line Item Type
  Title 24-2008 Nonres 13 Ext Wall Mass,  ! Item Name
  ,                                       ! Object End Use Key
  ,                                       ! Quantity {dimensionless}
  211.895,                                ! Material Cost {$}
  CostPerArea;                            ! Material Cost Units

OS:ComponentData,
  {bfeb13f1-7559-46a6-8af6-d55d4faf2295}, ! Handle
  Component Data 1,                       ! Name
  {1b461b98-9af1-456d-9b38-b0f785274d2f}, ! UUID
  {be190940-52ae-46e5-a85d-81b37396e4e8}, ! Version UUID
  1363982089,                             ! Creation Timestamp
  1363982089,                             ! Version Timestamp
  {f849b9b7-41ee-4d1f-a6c4-58e1ea8ffb3f}, ! Name of Object 1
  {3b40f382-a4e0-4311-b520-6b4417dd5b1d}, ! Name of Object 2
  {eef50484-f27b-4efe-840e-408077feee14}, ! Name of Object 3
  {5939a0bf-3e39-45b3-b61e-4f1c9dd68437}, ! Name of Object 4
  {2b0334f2-be13-465f-9030-9d4d251fee79}, ! Name of Object 5
  {f19ab86f-a1c4-464c-88ae-af53d3555383}; ! Name of Object 6

