
OS:Version,
  {d3eab877-c1b1-475e-b742-09c9e82f4d5b}, ! Handle
  0.9.3;                                  ! Version Identifier

OS:Material,
  {efa64641-148d-4aa6-a1a1-88ff4f09f0d6}, ! Handle
  1IN Stucco,                             ! Name
  Smooth,                                 ! Roughness
  0.0253,                                 ! Thickness {m}
  0.6918,                                 ! Conductivity {W/m-K}
  1858,                                   ! Density {kg/m3}
  837,                                    ! Specific Heat {J/kg-K}
  0.9,                                    ! Thermal Absorptance
  0.92,                                   ! Solar Absorptance
  0.92;                                   ! Visible Absorptance

OS:ComponentCost:LineItem,
  {0c34e54f-71b8-46da-8202-e69630b5ee07}, ! Handle
  Title 24-2008 Nonres 13 Ext Wall Mass,  ! Name
  ,                                       ! Type
  Construction,                           ! Line Item Type
  Title 24-2008 Nonres 13 Ext Wall Mass,  ! Item Name
  ,                                       ! Object End Use Key
  ,                                       ! Quantity {dimensionless}
  211.895,                                ! Material Cost {$}
  CostPerArea;                            ! Material Cost Units

OS:Construction,
  {f360e065-e342-4098-a681-9515e0b259af}, ! Handle
  Title 24-2008 Nonres 13 Ext Wall Mass,  ! Name
  ,                                       ! Surface Rendering Name
  {efa64641-148d-4aa6-a1a1-88ff4f09f0d6}, ! Layer 1
  {e575943b-f3fc-403b-b661-d61e29dec432}, ! Layer 2
  {6ccf177f-90c9-41ff-858a-e8884363703a}, ! Layer 3
  {f1cd8602-d480-4b23-988f-57a9f0180ac5}; ! Layer 4

OS:Material,
  {e575943b-f3fc-403b-b661-d61e29dec432}, ! Handle
  8IN Concrete HW,                        ! Name
  MediumRough,                            ! Roughness
  0.2033,                                 ! Thickness {m}
  1.7296,                                 ! Conductivity {W/m-K}
  2243,                                   ! Density {kg/m3}
  837,                                    ! Specific Heat {J/kg-K}
  0.9,                                    ! Thermal Absorptance
  0.65,                                   ! Solar Absorptance
  0.65;                                   ! Visible Absorptance

OS:Material,
  {6ccf177f-90c9-41ff-858a-e8884363703a}, ! Handle
  Wall Insulation [158],                  ! Name
  MediumRough,                            ! Roughness
  0.0509,                                 ! Thickness {m}
  0.0432,                                 ! Conductivity {W/m-K}
  91,                                     ! Density {kg/m3}
  837,                                    ! Specific Heat {J/kg-K}
  0.9,                                    ! Thermal Absorptance
  0.5,                                    ! Solar Absorptance
  0.5;                                    ! Visible Absorptance

OS:Material,
  {f1cd8602-d480-4b23-988f-57a9f0180ac5}, ! Handle
  1/2IN Gypsum,                           ! Name
  Smooth,                                 ! Roughness
  0.01271,                                ! Thickness {m}
  0.16,                                   ! Conductivity {W/m-K}
  784.9,                                  ! Density {kg/m3}
  830,                                    ! Specific Heat {J/kg-K}
  0.9,                                    ! Thermal Absorptance
  0.92,                                   ! Solar Absorptance
  0.92;                                   ! Visible Absorptance

