
OS:Version,
  {e40e108f-48af-45be-b9f4-6a3cf41750da}, ! Handle
  0.9.3;                                  ! Version Identifier

OS:Construction,
  {52f2d7af-5d20-49c0-874d-d91cb17d167c}, ! Handle
  90.1-2001 Nonres B23 Roof Metal Building, ! Name
  ,                                       ! Surface Rendering Name
  {0c810d9e-de8f-46ec-adb2-59cf675f6944}, ! Layer 1
  {0d0079b4-dc06-409a-b452-f1d3d67fdc98}; ! Layer 2

OS:Material,
  {0c810d9e-de8f-46ec-adb2-59cf675f6944}, ! Handle
  Metal Roofing,                          ! Name
  MediumSmooth,                           ! Roughness
  0.001524,                               ! Thickness {m}
  45.006,                                 ! Conductivity {W/m-K}
  7680,                                   ! Density {kg/m3}
  418.4,                                  ! Specific Heat {J/kg-K}
  0.9,                                    ! Thermal Absorptance
  0.7,                                    ! Solar Absorptance
  0.3;                                    ! Visible Absorptance

OS:Material,
  {0d0079b4-dc06-409a-b452-f1d3d67fdc98}, ! Handle
  Roof Insulation [6],                    ! Name
  MediumRough,                            ! Roughness
  0.147675,                               ! Thickness {m}
  0.049,                                  ! Conductivity {W/m-K}
  265,                                    ! Density {kg/m3}
  836.8,                                  ! Specific Heat {J/kg-K}
  0.9,                                    ! Thermal Absorptance
  0.7,                                    ! Solar Absorptance
  0.7;                                    ! Visible Absorptance

OS:ComponentCost:LineItem,
  {f0a8c8b8-5413-4e68-ad28-351c9d042dee}, ! Handle
  90.1-2001 Nonres B23 Roof Metal Building, ! Name
  ,                                       ! Type
  Construction,                           ! Line Item Type
  90.1-2001 Nonres B23 Roof Metal Building, ! Item Name
  ,                                       ! Object End Use Key
  ,                                       ! Quantity {dimensionless}
  40.571,                                 ! Material Cost {$}
  CostPerArea;                            ! Material Cost Units

