
OS:Version,
  {13576212-6441-4ad9-b864-633ea377072b}, ! Handle
  0.9.3;                                  ! Version Identifier

OS:Construction,
  {f3651ad0-fd88-4fef-8290-5feef0d09b44}, ! Handle
  90.1-1999 Res B9 Skylight without Curb, ! Name
  ,                                       ! Surface Rendering Name
  {4ae7e0b0-2a28-47b0-ba9f-ec141f292ea6}; ! Layer 1

OS:WindowMaterial:Glazing,
  {4ae7e0b0-2a28-47b0-ba9f-ec141f292ea6}, ! Handle
  Theoretical Glass [76],                 ! Name
  SpectralAverage,                        ! Optical Data Type
  ,                                       ! Window Glass Spectral Data Set Name
  0.003,                                  ! Thickness {m}
  0.376276,                               ! Solar Transmittance at Normal Incidence
  0.573724,                               ! Front Side Solar Reflectance at Normal Incidence
  0.573724,                               ! Back Side Solar Reflectance at Normal Incidence
  0.41104,                                ! Visible Transmittance at Normal Incidence
  0.53896,                                ! Front Side Visible Reflectance at Normal Incidence
  0.53896,                                ! Back Side Visible Reflectance at Normal Incidence
  0,                                      ! Infrared Transmittance at Normal Incidence
  0.999,                                  ! Front Side Infrared Hemispherical Emissivity
  0.999,                                  ! Back Side Infrared Hemispherical Emissivity
  72.7123;                                ! Conductivity {W/m-K}

OS:ComponentCost:LineItem,
  {38788340-da44-467b-9136-5704ca4f0f73}, ! Handle
  90.1-1999 Res B9 Skylight without Curb, ! Name
  ,                                       ! Type
  Construction,                           ! Line Item Type
  90.1-1999 Res B9 Skylight without Curb, ! Item Name
  ,                                       ! Object End Use Key
  ,                                       ! Quantity {dimensionless}
  527.515,                                ! Material Cost {$}
  CostPerArea;                            ! Material Cost Units

OS:ComponentData,
  {e9ef93a3-10f1-43ec-8cb9-f76b26f0effd}, ! Handle
  Component Data 1,                       ! Name
  {a59a87da-f11f-43be-9007-37f8264fb3bf}, ! UUID
  {e5268ae6-1f22-411d-81b1-e22d01775ea8}, ! Version UUID
  1363981204,                             ! Creation Timestamp
  1363981204,                             ! Version Timestamp
  {f3651ad0-fd88-4fef-8290-5feef0d09b44}, ! Name of Object 1
  {4ae7e0b0-2a28-47b0-ba9f-ec141f292ea6}, ! Name of Object 2
  {38788340-da44-467b-9136-5704ca4f0f73}; ! Name of Object 3

