
OS:Version,
  {8937b451-a76a-4ba1-ab44-11c04e95ebc4}, ! Handle
  0.9.3;                                  ! Version Identifier

OS:Construction,
  {9c4180b1-a8ef-4136-9203-494fe2941aba}, ! Handle
  90.1-2001 Nonres B22 Ext Slab Unheated - 4in Slab without Carpet, ! Name
  ,                                       ! Surface Rendering Name
  {8a386c0b-6e02-421b-9da4-d439f8542965}; ! Layer 1

OS:Material,
  {8a386c0b-6e02-421b-9da4-d439f8542965}, ! Handle
  MAT-CC05 4 HW CONCRETE,                 ! Name
  Rough,                                  ! Roughness
  0.1016,                                 ! Thickness {m}
  1.311,                                  ! Conductivity {W/m-K}
  2240,                                   ! Density {kg/m3}
  836.8,                                  ! Specific Heat {J/kg-K}
  0.9,                                    ! Thermal Absorptance
  0.7,                                    ! Solar Absorptance
  0.7;                                    ! Visible Absorptance

OS:ComponentCost:LineItem,
  {ef09b34e-0fea-43bc-a1a8-3bb1e5f210a9}, ! Handle
  90.1-2001 Nonres B22 Ext Slab Unheated - 4in Slab without Carpet, ! Name
  ,                                       ! Type
  Construction,                           ! Line Item Type
  90.1-2001 Nonres B22 Ext Slab Unheated - 4in Slab without Carpet, ! Item Name
  ,                                       ! Object End Use Key
  ,                                       ! Quantity {dimensionless}
  45.52,                                  ! Material Cost {$}
  CostPerArea;                            ! Material Cost Units

