
OS:Version,
  {ef138869-ca5e-4550-961d-61a1214fba80}, ! Handle
  0.9.3;                                  ! Version Identifier

OS:Construction,
  {c65f1acc-9329-4526-8ae1-69b0dab25440}, ! Handle
  Title 24-2008 Nonres 1 Ext Wall Wood-Framed and Other, ! Name
  ,                                       ! Surface Rendering Name
  {d00b1268-11c3-471e-86de-a9c14bbf1acc}, ! Layer 1
  {63d250f4-bc35-44bd-a363-e1f0618177c2}, ! Layer 2
  {aa4fed81-e3a9-464d-8c9c-83fa4a8b7a27}; ! Layer 3

OS:Material,
  {d00b1268-11c3-471e-86de-a9c14bbf1acc}, ! Handle
  Wood Siding,                            ! Name
  MediumSmooth,                           ! Roughness
  0.01,                                   ! Thickness {m}
  0.11,                                   ! Conductivity {W/m-K}
  544.62,                                 ! Density {kg/m3}
  1210,                                   ! Specific Heat {J/kg-K}
  0.9,                                    ! Thermal Absorptance
  0.78,                                   ! Solar Absorptance
  0.78;                                   ! Visible Absorptance

OS:Material,
  {63d250f4-bc35-44bd-a363-e1f0618177c2}, ! Handle
  Wall Insulation [159],                  ! Name
  MediumRough,                            ! Roughness
  0.0812,                                 ! Thickness {m}
  0.045,                                  ! Conductivity {W/m-K}
  265,                                    ! Density {kg/m3}
  836.8,                                  ! Specific Heat {J/kg-K}
  0.9,                                    ! Thermal Absorptance
  0.7,                                    ! Solar Absorptance
  0.7;                                    ! Visible Absorptance

OS:Material,
  {aa4fed81-e3a9-464d-8c9c-83fa4a8b7a27}, ! Handle
  1/2IN Gypsum,                           ! Name
  Smooth,                                 ! Roughness
  0.01271,                                ! Thickness {m}
  0.16,                                   ! Conductivity {W/m-K}
  784.9,                                  ! Density {kg/m3}
  830,                                    ! Specific Heat {J/kg-K}
  0.9,                                    ! Thermal Absorptance
  0.92,                                   ! Solar Absorptance
  0.92;                                   ! Visible Absorptance

OS:ComponentCost:LineItem,
  {25e4b266-81f1-408d-b476-e3f7339c12ad}, ! Handle
  Title 24-2008 Nonres 1 Ext Wall Wood-Framed and Other, ! Name
  ,                                       ! Type
  Construction,                           ! Line Item Type
  Title 24-2008 Nonres 1 Ext Wall Wood-Framed and Other, ! Item Name
  ,                                       ! Object End Use Key
  ,                                       ! Quantity {dimensionless}
  140.526,                                ! Material Cost {$}
  CostPerArea;                            ! Material Cost Units

OS:ComponentData,
  {8feaae31-ff80-40d0-9353-545ddf129a4a}, ! Handle
  Component Data 1,                       ! Name
  {a0d5d239-9de3-4a44-b6df-98be77b57a78}, ! UUID
  {0dfd17a1-dbc7-4176-8119-88cb1cf2216d}, ! Version UUID
  1363981982,                             ! Creation Timestamp
  1363981982,                             ! Version Timestamp
  {c65f1acc-9329-4526-8ae1-69b0dab25440}, ! Name of Object 1
  {d00b1268-11c3-471e-86de-a9c14bbf1acc}, ! Name of Object 2
  {63d250f4-bc35-44bd-a363-e1f0618177c2}, ! Name of Object 3
  {aa4fed81-e3a9-464d-8c9c-83fa4a8b7a27}, ! Name of Object 4
  {25e4b266-81f1-408d-b476-e3f7339c12ad}; ! Name of Object 5

