
OS:Version,
  {241f0694-2e90-4efd-8205-5195e133b40e}, ! Handle
  0.9.3;                                  ! Version Identifier

OS:ComponentCost:LineItem,
  {09b62f7f-f967-487b-b304-fc2402196102}, ! Handle
  Title 24-2008 Nonres 1 Ext Wall Wood-Framed and Other, ! Name
  ,                                       ! Type
  Construction,                           ! Line Item Type
  Title 24-2008 Nonres 1 Ext Wall Wood-Framed and Other, ! Item Name
  ,                                       ! Object End Use Key
  ,                                       ! Quantity {dimensionless}
  140.526,                                ! Material Cost {$}
  CostPerArea;                            ! Material Cost Units

OS:Material,
  {6fc0f548-29ea-49a7-863d-eb38bb76c8e0}, ! Handle
  1/2IN Gypsum,                           ! Name
  Smooth,                                 ! Roughness
  0.01271,                                ! Thickness {m}
  0.16,                                   ! Conductivity {W/m-K}
  784.9,                                  ! Density {kg/m3}
  830,                                    ! Specific Heat {J/kg-K}
  0.9,                                    ! Thermal Absorptance
  0.92,                                   ! Solar Absorptance
  0.92;                                   ! Visible Absorptance

OS:Construction,
  {0231c268-2cd9-4904-a271-81f9e45d60bb}, ! Handle
  Title 24-2008 Nonres 1 Ext Wall Wood-Framed and Other, ! Name
  ,                                       ! Surface Rendering Name
  {441d7156-9d86-4b0b-addc-a7a0edc09350}, ! Layer 1
  {febdcd04-d477-48e5-af9e-68fb7961df65}, ! Layer 2
  {6fc0f548-29ea-49a7-863d-eb38bb76c8e0}; ! Layer 3

OS:Material,
  {441d7156-9d86-4b0b-addc-a7a0edc09350}, ! Handle
  Wood Siding,                            ! Name
  MediumSmooth,                           ! Roughness
  0.01,                                   ! Thickness {m}
  0.11,                                   ! Conductivity {W/m-K}
  544.62,                                 ! Density {kg/m3}
  1210,                                   ! Specific Heat {J/kg-K}
  0.9,                                    ! Thermal Absorptance
  0.78,                                   ! Solar Absorptance
  0.78;                                   ! Visible Absorptance

OS:Material,
  {febdcd04-d477-48e5-af9e-68fb7961df65}, ! Handle
  Wall Insulation [159],                  ! Name
  MediumRough,                            ! Roughness
  0.0812,                                 ! Thickness {m}
  0.045,                                  ! Conductivity {W/m-K}
  265,                                    ! Density {kg/m3}
  836.8,                                  ! Specific Heat {J/kg-K}
  0.9,                                    ! Thermal Absorptance
  0.7,                                    ! Solar Absorptance
  0.7;                                    ! Visible Absorptance

