
OS:Version,
  {5b531293-e56f-4824-8d54-75480de87324}, ! Handle
  0.9.3;                                  ! Version Identifier

OS:ComponentCost:LineItem,
  {639c8e04-e0ae-44aa-ab7d-cd4227183f3e}, ! Handle
  90.1-2004 Nonres 6B Ext Wall Metal Building, ! Name
  ,                                       ! Type
  Construction,                           ! Line Item Type
  90.1-2004 Nonres 6B Ext Wall Metal Building, ! Item Name
  ,                                       ! Object End Use Key
  ,                                       ! Quantity {dimensionless}
  98.78,                                  ! Material Cost {$}
  CostPerArea;                            ! Material Cost Units

OS:Material,
  {5c2995f9-6b46-4913-a264-b3bddf27317e}, ! Handle
  Wall Insulation,                        ! Name
  MediumRough,                            ! Roughness
  0.0598725,                              ! Thickness {m}
  0.045,                                  ! Conductivity {W/m-K}
  265,                                    ! Density {kg/m3}
  836.8,                                  ! Specific Heat {J/kg-K}
  0.9,                                    ! Thermal Absorptance
  0.7,                                    ! Solar Absorptance
  0.7;                                    ! Visible Absorptance

OS:Material,
  {11d7f175-03f4-41b1-8398-bfaef006d96e}, ! Handle
  Metal Siding,                           ! Name
  Smooth,                                 ! Roughness
  0.0015,                                 ! Thickness {m}
  44.96,                                  ! Conductivity {W/m-K}
  7688.86,                                ! Density {kg/m3}
  410,                                    ! Specific Heat {J/kg-K}
  0.9,                                    ! Thermal Absorptance
  0.2,                                    ! Solar Absorptance
  0.2;                                    ! Visible Absorptance

OS:Material,
  {b442f566-94a9-4224-9d5c-fa9d39b52c94}, ! Handle
  1/2IN Gypsum,                           ! Name
  Smooth,                                 ! Roughness
  0.01271,                                ! Thickness {m}
  0.16,                                   ! Conductivity {W/m-K}
  784.9,                                  ! Density {kg/m3}
  830,                                    ! Specific Heat {J/kg-K}
  0.9,                                    ! Thermal Absorptance
  0.92,                                   ! Solar Absorptance
  0.92;                                   ! Visible Absorptance

OS:Construction,
  {02ff9e7e-1aac-49bb-93c0-d04fc7bde949}, ! Handle
  90.1-2004 Nonres 6B Ext Wall Metal Building, ! Name
  ,                                       ! Surface Rendering Name
  {11d7f175-03f4-41b1-8398-bfaef006d96e}, ! Layer 1
  {5c2995f9-6b46-4913-a264-b3bddf27317e}, ! Layer 2
  {b442f566-94a9-4224-9d5c-fa9d39b52c94}; ! Layer 3

