
OS:Version,
  {fecb06fe-4807-41fd-b6c5-77a70f2d567c}, ! Handle
  0.9.3;                                  ! Version Identifier

OS:Construction,
  {b28d120b-0f34-4730-8f86-0b040d567ba8}, ! Handle
  90.1-2004 Nonres 6B Ext Wall Metal Building, ! Name
  ,                                       ! Surface Rendering Name
  {b9b53bf4-da99-4223-91f2-90c5b7b8979b}, ! Layer 1
  {7d277cd9-a5c9-46eb-b08a-d5203f2c943a}, ! Layer 2
  {c3781c63-db60-4f63-a94a-fdc304d8e9b8}; ! Layer 3

OS:Material,
  {b9b53bf4-da99-4223-91f2-90c5b7b8979b}, ! Handle
  Metal Siding,                           ! Name
  Smooth,                                 ! Roughness
  0.0015,                                 ! Thickness {m}
  44.96,                                  ! Conductivity {W/m-K}
  7688.86,                                ! Density {kg/m3}
  410,                                    ! Specific Heat {J/kg-K}
  0.9,                                    ! Thermal Absorptance
  0.2,                                    ! Solar Absorptance
  0.2;                                    ! Visible Absorptance

OS:Material,
  {7d277cd9-a5c9-46eb-b08a-d5203f2c943a}, ! Handle
  Wall Insulation,                        ! Name
  MediumRough,                            ! Roughness
  0.0598725,                              ! Thickness {m}
  0.045,                                  ! Conductivity {W/m-K}
  265,                                    ! Density {kg/m3}
  836.8,                                  ! Specific Heat {J/kg-K}
  0.9,                                    ! Thermal Absorptance
  0.7,                                    ! Solar Absorptance
  0.7;                                    ! Visible Absorptance

OS:Material,
  {c3781c63-db60-4f63-a94a-fdc304d8e9b8}, ! Handle
  1/2IN Gypsum,                           ! Name
  Smooth,                                 ! Roughness
  0.01271,                                ! Thickness {m}
  0.16,                                   ! Conductivity {W/m-K}
  784.9,                                  ! Density {kg/m3}
  830,                                    ! Specific Heat {J/kg-K}
  0.9,                                    ! Thermal Absorptance
  0.92,                                   ! Solar Absorptance
  0.92;                                   ! Visible Absorptance

OS:ComponentCost:LineItem,
  {4db980f9-94cf-4a24-8451-522a6a74e2cb}, ! Handle
  90.1-2004 Nonres 6B Ext Wall Metal Building, ! Name
  ,                                       ! Type
  Construction,                           ! Line Item Type
  90.1-2004 Nonres 6B Ext Wall Metal Building, ! Item Name
  ,                                       ! Object End Use Key
  ,                                       ! Quantity {dimensionless}
  98.78,                                  ! Material Cost {$}
  CostPerArea;                            ! Material Cost Units

OS:ComponentData,
  {4780f592-084b-443c-8296-1025d3dfffb9}, ! Handle
  Component Data 1,                       ! Name
  {bf4640f2-2708-48ea-981d-441de73a87e0}, ! UUID
  {b558e659-d741-4e72-9d9d-0143a28dd23d}, ! Version UUID
  1363981685,                             ! Creation Timestamp
  1363981685,                             ! Version Timestamp
  {b28d120b-0f34-4730-8f86-0b040d567ba8}, ! Name of Object 1
  {b9b53bf4-da99-4223-91f2-90c5b7b8979b}, ! Name of Object 2
  {7d277cd9-a5c9-46eb-b08a-d5203f2c943a}, ! Name of Object 3
  {c3781c63-db60-4f63-a94a-fdc304d8e9b8}, ! Name of Object 4
  {4db980f9-94cf-4a24-8451-522a6a74e2cb}; ! Name of Object 5

