
OS:Version,
  {0b2af751-def0-4c11-bf96-e718c3a9c75b}, ! Handle
  0.9.3;                                  ! Version Identifier

OS:Construction,
  {55a8089d-42b2-4900-9f24-6d8351a0adac}, ! Handle
  AEDG-SmOffice 7A Ext Wall Metal Building, ! Name
  ,                                       ! Surface Rendering Name
  {2a749b00-5a82-4816-839e-fd2edc54f9a4}, ! Layer 1
  {a3f7d1d2-6594-4adc-89a9-0f03ee84698e}, ! Layer 2
  {9cbebee3-e52f-4ef0-86a8-68459c5da0bc}; ! Layer 3

OS:Material,
  {2a749b00-5a82-4816-839e-fd2edc54f9a4}, ! Handle
  Metal Siding,                           ! Name
  Smooth,                                 ! Roughness
  0.0015,                                 ! Thickness {m}
  44.96,                                  ! Conductivity {W/m-K}
  7688.86,                                ! Density {kg/m3}
  410,                                    ! Specific Heat {J/kg-K}
  0.9,                                    ! Thermal Absorptance
  0.2,                                    ! Solar Absorptance
  0.2;                                    ! Visible Absorptance

OS:Material,
  {a3f7d1d2-6594-4adc-89a9-0f03ee84698e}, ! Handle
  Wall Insulation [9],                    ! Name
  MediumRough,                            ! Roughness
  0.128642,                               ! Thickness {m}
  0.045,                                  ! Conductivity {W/m-K}
  265,                                    ! Density {kg/m3}
  836.8,                                  ! Specific Heat {J/kg-K}
  0.9,                                    ! Thermal Absorptance
  0.7,                                    ! Solar Absorptance
  0.7;                                    ! Visible Absorptance

OS:Material,
  {9cbebee3-e52f-4ef0-86a8-68459c5da0bc}, ! Handle
  1/2IN Gypsum,                           ! Name
  Smooth,                                 ! Roughness
  0.01271,                                ! Thickness {m}
  0.16,                                   ! Conductivity {W/m-K}
  784.9,                                  ! Density {kg/m3}
  830,                                    ! Specific Heat {J/kg-K}
  0.9,                                    ! Thermal Absorptance
  0.92,                                   ! Solar Absorptance
  0.92;                                   ! Visible Absorptance

OS:ComponentCost:LineItem,
  {23c88d2c-24f4-4b82-bada-0a171ea7649e}, ! Handle
  AEDG-SmOffice 7A Ext Wall Metal Building, ! Name
  ,                                       ! Type
  Construction,                           ! Line Item Type
  AEDG-SmOffice 7A Ext Wall Metal Building, ! Item Name
  ,                                       ! Object End Use Key
  ,                                       ! Quantity {dimensionless}
  107.698,                                ! Material Cost {$}
  CostPerArea;                            ! Material Cost Units

OS:ComponentData,
  {747be856-0d8d-4b37-a261-0ef2300fce71}, ! Handle
  Component Data 1,                       ! Name
  {e175bfa8-3d3a-41cf-ac9e-137b63e6a5fc}, ! UUID
  {f7f269d0-a118-43d8-86ce-43f88cd1f039}, ! Version UUID
  1363981963,                             ! Creation Timestamp
  1363981963,                             ! Version Timestamp
  {55a8089d-42b2-4900-9f24-6d8351a0adac}, ! Name of Object 1
  {2a749b00-5a82-4816-839e-fd2edc54f9a4}, ! Name of Object 2
  {a3f7d1d2-6594-4adc-89a9-0f03ee84698e}, ! Name of Object 3
  {9cbebee3-e52f-4ef0-86a8-68459c5da0bc}, ! Name of Object 4
  {23c88d2c-24f4-4b82-bada-0a171ea7649e}; ! Name of Object 5

