
OS:Version,
  {761ea1a5-7ee3-4ff2-bd70-91c48ee6667e}, ! Handle
  0.9.3;                                  ! Version Identifier

OS:Material,
  {ef69a0fc-c16a-43a8-9fa4-a8104b307d31}, ! Handle
  Metal Siding,                           ! Name
  Smooth,                                 ! Roughness
  0.0015,                                 ! Thickness {m}
  44.96,                                  ! Conductivity {W/m-K}
  7688.86,                                ! Density {kg/m3}
  410,                                    ! Specific Heat {J/kg-K}
  0.9,                                    ! Thermal Absorptance
  0.2,                                    ! Solar Absorptance
  0.2;                                    ! Visible Absorptance

OS:Construction,
  {49d9e81c-d1d4-4299-b215-95940db69323}, ! Handle
  AEDG-SmOffice 7A Ext Wall Metal Building, ! Name
  ,                                       ! Surface Rendering Name
  {ef69a0fc-c16a-43a8-9fa4-a8104b307d31}, ! Layer 1
  {67c5f905-931d-47d5-925b-8381bf7ae9cb}, ! Layer 2
  {766fda78-ddb4-4d0f-8914-517c1f898026}; ! Layer 3

OS:Material,
  {67c5f905-931d-47d5-925b-8381bf7ae9cb}, ! Handle
  Wall Insulation [9],                    ! Name
  MediumRough,                            ! Roughness
  0.128642,                               ! Thickness {m}
  0.045,                                  ! Conductivity {W/m-K}
  265,                                    ! Density {kg/m3}
  836.8,                                  ! Specific Heat {J/kg-K}
  0.9,                                    ! Thermal Absorptance
  0.7,                                    ! Solar Absorptance
  0.7;                                    ! Visible Absorptance

OS:Material,
  {766fda78-ddb4-4d0f-8914-517c1f898026}, ! Handle
  1/2IN Gypsum,                           ! Name
  Smooth,                                 ! Roughness
  0.01271,                                ! Thickness {m}
  0.16,                                   ! Conductivity {W/m-K}
  784.9,                                  ! Density {kg/m3}
  830,                                    ! Specific Heat {J/kg-K}
  0.9,                                    ! Thermal Absorptance
  0.92,                                   ! Solar Absorptance
  0.92;                                   ! Visible Absorptance

OS:ComponentCost:LineItem,
  {f006f167-8628-4d14-aba6-e82c8c8463ff}, ! Handle
  AEDG-SmOffice 7A Ext Wall Metal Building, ! Name
  ,                                       ! Type
  Construction,                           ! Line Item Type
  AEDG-SmOffice 7A Ext Wall Metal Building, ! Item Name
  ,                                       ! Object End Use Key
  ,                                       ! Quantity {dimensionless}
  107.698,                                ! Material Cost {$}
  CostPerArea;                            ! Material Cost Units

