
OS:Version,
  {e0578f97-8b48-4618-8d1b-45d7201f745f}, ! Handle
  0.9.3;                                  ! Version Identifier

OS:Construction,
  {a3cae694-8980-45e2-a4d1-ba525f4eca3c}, ! Handle
  90.1-1999 Nonres B21 Ext Slab Unheated - 4in Slab without Carpet, ! Name
  ,                                       ! Surface Rendering Name
  {ca614210-8db3-4728-bc8f-fc357ac1a1ab}; ! Layer 1

OS:Material,
  {ca614210-8db3-4728-bc8f-fc357ac1a1ab}, ! Handle
  MAT-CC05 4 HW CONCRETE,                 ! Name
  Rough,                                  ! Roughness
  0.1016,                                 ! Thickness {m}
  1.311,                                  ! Conductivity {W/m-K}
  2240,                                   ! Density {kg/m3}
  836.8,                                  ! Specific Heat {J/kg-K}
  0.9,                                    ! Thermal Absorptance
  0.7,                                    ! Solar Absorptance
  0.7;                                    ! Visible Absorptance

OS:ComponentCost:LineItem,
  {bab793be-726e-49dc-95d0-4502ef01149f}, ! Handle
  90.1-1999 Nonres B21 Ext Slab Unheated - 4in Slab without Carpet, ! Name
  ,                                       ! Type
  Construction,                           ! Line Item Type
  90.1-1999 Nonres B21 Ext Slab Unheated - 4in Slab without Carpet, ! Item Name
  ,                                       ! Object End Use Key
  ,                                       ! Quantity {dimensionless}
  45.52,                                  ! Material Cost {$}
  CostPerArea;                            ! Material Cost Units

OS:ComponentData,
  {c1f79336-3dda-417c-b4d7-36b22cab8496}, ! Handle
  Component Data 1,                       ! Name
  {8c190dd2-484a-4c53-8f54-8eab02e5cbb3}, ! UUID
  {d7aabdb9-983b-4bc7-8131-e2fa4368a3e5}, ! Version UUID
  1363981134,                             ! Creation Timestamp
  1363981134,                             ! Version Timestamp
  {a3cae694-8980-45e2-a4d1-ba525f4eca3c}, ! Name of Object 1
  {ca614210-8db3-4728-bc8f-fc357ac1a1ab}, ! Name of Object 2
  {bab793be-726e-49dc-95d0-4502ef01149f}; ! Name of Object 3

