
OS:Version,
  {56bb076a-7e5f-406a-ad91-8db7405b16c6}, ! Handle
  0.9.3;                                  ! Version Identifier

OS:Construction,
  {2086a355-019b-42a6-afad-3c795c362c25}, ! Handle
  90.1-2001 Nonres B7 Roof IEAD,          ! Name
  ,                                       ! Surface Rendering Name
  {c5f37e7b-8378-4f3a-b0e2-882dc5b0eee7}, ! Layer 1
  {cb4fdc2e-adfe-4cdb-80a1-0c1f05ecafa5}, ! Layer 2
  {e77a6fdf-f1ae-49ed-ac71-8db813be3045}; ! Layer 3

OS:Material,
  {c5f37e7b-8378-4f3a-b0e2-882dc5b0eee7}, ! Handle
  Roof Membrane,                          ! Name
  VeryRough,                              ! Roughness
  0.0095,                                 ! Thickness {m}
  0.16,                                   ! Conductivity {W/m-K}
  1121.29,                                ! Density {kg/m3}
  1460,                                   ! Specific Heat {J/kg-K}
  0.9,                                    ! Thermal Absorptance
  0.7,                                    ! Solar Absorptance
  0.7;                                    ! Visible Absorptance

OS:Material,
  {cb4fdc2e-adfe-4cdb-80a1-0c1f05ecafa5}, ! Handle
  Roof Insulation [3],                    ! Name
  MediumRough,                            ! Roughness
  0.0806842,                              ! Thickness {m}
  0.049,                                  ! Conductivity {W/m-K}
  265,                                    ! Density {kg/m3}
  836.8,                                  ! Specific Heat {J/kg-K}
  0.9,                                    ! Thermal Absorptance
  0.7,                                    ! Solar Absorptance
  0.7;                                    ! Visible Absorptance

OS:Material,
  {e77a6fdf-f1ae-49ed-ac71-8db813be3045}, ! Handle
  Metal Decking,                          ! Name
  MediumSmooth,                           ! Roughness
  0.001524,                               ! Thickness {m}
  45.006,                                 ! Conductivity {W/m-K}
  7680,                                   ! Density {kg/m3}
  418.4,                                  ! Specific Heat {J/kg-K}
  0.9,                                    ! Thermal Absorptance
  0.7,                                    ! Solar Absorptance
  0.3;                                    ! Visible Absorptance

OS:ComponentCost:LineItem,
  {297c2961-f5c7-4d92-bd78-7b4e49ec10af}, ! Handle
  90.1-2001 Nonres B7 Roof IEAD,          ! Name
  ,                                       ! Type
  Construction,                           ! Line Item Type
  90.1-2001 Nonres B7 Roof IEAD,          ! Item Name
  ,                                       ! Object End Use Key
  ,                                       ! Quantity {dimensionless}
  45.318,                                 ! Material Cost {$}
  CostPerArea;                            ! Material Cost Units

OS:ComponentData,
  {e25e0856-595d-40b8-9682-d7374f240c33}, ! Handle
  Component Data 1,                       ! Name
  {0fe466a2-948f-41db-98cb-de5916d193be}, ! UUID
  {865cec15-6c11-49fc-b907-fb2e654cc5c2}, ! Version UUID
  1363981321,                             ! Creation Timestamp
  1363981321,                             ! Version Timestamp
  {2086a355-019b-42a6-afad-3c795c362c25}, ! Name of Object 1
  {c5f37e7b-8378-4f3a-b0e2-882dc5b0eee7}, ! Name of Object 2
  {cb4fdc2e-adfe-4cdb-80a1-0c1f05ecafa5}, ! Name of Object 3
  {e77a6fdf-f1ae-49ed-ac71-8db813be3045}, ! Name of Object 4
  {297c2961-f5c7-4d92-bd78-7b4e49ec10af}; ! Name of Object 5

