
OS:Version,
  {c4121e05-5546-4b21-9b9f-866423e37623}, ! Handle
  0.9.3;                                  ! Version Identifier

OS:ComponentCost:LineItem,
  {01adb333-5765-46a3-807a-300db9291489}, ! Handle
  90.1-2001 Nonres B7 Roof IEAD,          ! Name
  ,                                       ! Type
  Construction,                           ! Line Item Type
  90.1-2001 Nonres B7 Roof IEAD,          ! Item Name
  ,                                       ! Object End Use Key
  ,                                       ! Quantity {dimensionless}
  45.318,                                 ! Material Cost {$}
  CostPerArea;                            ! Material Cost Units

OS:Construction,
  {c73e2bd6-5d91-4881-b75e-120582381133}, ! Handle
  90.1-2001 Nonres B7 Roof IEAD,          ! Name
  ,                                       ! Surface Rendering Name
  {aaa1c30c-8af7-4986-a459-a90a94802f79}, ! Layer 1
  {15c7459a-e5a4-4376-8a3c-0f8ea84eb8a6}, ! Layer 2
  {0f0eda6e-0583-4e08-8aba-d08d6a24a903}; ! Layer 3

OS:Material,
  {aaa1c30c-8af7-4986-a459-a90a94802f79}, ! Handle
  Roof Membrane,                          ! Name
  VeryRough,                              ! Roughness
  0.0095,                                 ! Thickness {m}
  0.16,                                   ! Conductivity {W/m-K}
  1121.29,                                ! Density {kg/m3}
  1460,                                   ! Specific Heat {J/kg-K}
  0.9,                                    ! Thermal Absorptance
  0.7,                                    ! Solar Absorptance
  0.7;                                    ! Visible Absorptance

OS:Material,
  {15c7459a-e5a4-4376-8a3c-0f8ea84eb8a6}, ! Handle
  Roof Insulation [3],                    ! Name
  MediumRough,                            ! Roughness
  0.0806842,                              ! Thickness {m}
  0.049,                                  ! Conductivity {W/m-K}
  265,                                    ! Density {kg/m3}
  836.8,                                  ! Specific Heat {J/kg-K}
  0.9,                                    ! Thermal Absorptance
  0.7,                                    ! Solar Absorptance
  0.7;                                    ! Visible Absorptance

OS:Material,
  {0f0eda6e-0583-4e08-8aba-d08d6a24a903}, ! Handle
  Metal Decking,                          ! Name
  MediumSmooth,                           ! Roughness
  0.001524,                               ! Thickness {m}
  45.006,                                 ! Conductivity {W/m-K}
  7680,                                   ! Density {kg/m3}
  418.4,                                  ! Specific Heat {J/kg-K}
  0.9,                                    ! Thermal Absorptance
  0.7,                                    ! Solar Absorptance
  0.3;                                    ! Visible Absorptance

