
OS:Version,
  {80fa9ed3-c8f2-4715-84c3-7d848852656e}, ! Handle
  0.9.3;                                  ! Version Identifier

OS:Construction,
  {cd3c1a35-9abf-49a0-a24f-b3b953615bee}, ! Handle
  Title 24-2008 Nonres 11 Roof Attic and Other, ! Name
  ,                                       ! Surface Rendering Name
  {5d9052eb-acb9-4381-8ba2-76f9cb155b0e}, ! Layer 1
  {fc6c61e7-bb2a-4199-be27-146461ab7a3a}, ! Layer 2
  {de2215eb-21e5-4235-bdbe-7eb921152f32}, ! Layer 3
  {5256cf12-2074-447e-aefe-346d1e4d254a}; ! Layer 4

OS:Material,
  {5d9052eb-acb9-4381-8ba2-76f9cb155b0e}, ! Handle
  Wood Shingles [1],                      ! Name
  VeryRough,                              ! Roughness
  0.0178,                                 ! Thickness {m}
  0.115,                                  ! Conductivity {W/m-K}
  513,                                    ! Density {kg/m3}
  1255,                                   ! Specific Heat {J/kg-K}
  0.9,                                    ! Thermal Absorptance
  0.78,                                   ! Solar Absorptance
  0.85;                                   ! Visible Absorptance

OS:Material,
  {fc6c61e7-bb2a-4199-be27-146461ab7a3a}, ! Handle
  1IN Wood Decking,                       ! Name
  MediumSmooth,                           ! Roughness
  0.0254,                                 ! Thickness {m}
  0.1211,                                 ! Conductivity {W/m-K}
  593,                                    ! Density {kg/m3}
  2510,                                   ! Specific Heat {J/kg-K}
  0.9,                                    ! Thermal Absorptance
  0.78,                                   ! Solar Absorptance
  0.78;                                   ! Visible Absorptance

OS:Material,
  {de2215eb-21e5-4235-bdbe-7eb921152f32}, ! Handle
  Roof Insulation [106],                  ! Name
  MediumRough,                            ! Roughness
  0.190659,                               ! Thickness {m}
  0.049,                                  ! Conductivity {W/m-K}
  265,                                    ! Density {kg/m3}
  836.8,                                  ! Specific Heat {J/kg-K}
  0.9,                                    ! Thermal Absorptance
  0.7,                                    ! Solar Absorptance
  0.7;                                    ! Visible Absorptance

OS:Material,
  {5256cf12-2074-447e-aefe-346d1e4d254a}, ! Handle
  1/2IN Gypsum,                           ! Name
  Smooth,                                 ! Roughness
  0.01271,                                ! Thickness {m}
  0.16,                                   ! Conductivity {W/m-K}
  784.9,                                  ! Density {kg/m3}
  830,                                    ! Specific Heat {J/kg-K}
  0.9,                                    ! Thermal Absorptance
  0.92,                                   ! Solar Absorptance
  0.92;                                   ! Visible Absorptance

OS:ComponentCost:LineItem,
  {e62c0f20-2d0a-4fe4-82bb-8841fe343fee}, ! Handle
  Title 24-2008 Nonres 11 Roof Attic and Other, ! Name
  ,                                       ! Type
  Construction,                           ! Line Item Type
  Title 24-2008 Nonres 11 Roof Attic and Other, ! Item Name
  ,                                       ! Object End Use Key
  ,                                       ! Quantity {dimensionless}
  33.009,                                 ! Material Cost {$}
  CostPerArea;                            ! Material Cost Units

