
OS:Version,
  {a0664e94-3db4-4d41-be56-64ec29341972}, ! Handle
  0.9.3;                                  ! Version Identifier

OS:Construction,
  {3b29ecb5-3034-4458-b2ad-c540bc0180e2}, ! Handle
  90.1-2007 Res 5B Attic Floor,           ! Name
  ,                                       ! Surface Rendering Name
  {1cd253b4-b38c-4ff5-a325-77c07555e355}, ! Layer 1
  {3a2551f6-b551-44fb-8b83-d604df453a83}, ! Layer 2
  {1f524761-0051-4899-89da-31072ff8d6f7}; ! Layer 3

OS:Material,
  {1cd253b4-b38c-4ff5-a325-77c07555e355}, ! Handle
  1/2IN Gypsum Top,                       ! Name
  Smooth,                                 ! Roughness
  0.01271,                                ! Thickness {m}
  0.16,                                   ! Conductivity {W/m-K}
  784.9,                                  ! Density {kg/m3}
  830,                                    ! Specific Heat {J/kg-K}
  0.9,                                    ! Thermal Absorptance
  0.92,                                   ! Solar Absorptance
  0.92;                                   ! Visible Absorptance

OS:Material,
  {3a2551f6-b551-44fb-8b83-d604df453a83}, ! Handle
  AtticFloor Insulation [1],              ! Name
  MediumRough,                            ! Roughness
  0.303719,                               ! Thickness {m}
  0.049,                                  ! Conductivity {W/m-K}
  265,                                    ! Density {kg/m3}
  836.8,                                  ! Specific Heat {J/kg-K}
  0.9,                                    ! Thermal Absorptance
  0.7,                                    ! Solar Absorptance
  0.7;                                    ! Visible Absorptance

OS:Material,
  {1f524761-0051-4899-89da-31072ff8d6f7}, ! Handle
  1/2IN Gypsum Bottom,                    ! Name
  Smooth,                                 ! Roughness
  0.01271,                                ! Thickness {m}
  0.16,                                   ! Conductivity {W/m-K}
  784.9,                                  ! Density {kg/m3}
  830,                                    ! Specific Heat {J/kg-K}
  0.9,                                    ! Thermal Absorptance
  0.92,                                   ! Solar Absorptance
  0.92;                                   ! Visible Absorptance

OS:ComponentCost:LineItem,
  {0a469fda-5dfe-43ce-8e6d-4b94326b54ce}, ! Handle
  90.1-2007 Res 5B Attic Floor,           ! Name
  ,                                       ! Type
  Construction,                           ! Line Item Type
  90.1-2007 Res 5B Attic Floor,           ! Item Name
  ,                                       ! Object End Use Key
  ,                                       ! Quantity {dimensionless}
  35.009,                                 ! Material Cost {$}
  CostPerArea;                            ! Material Cost Units

OS:ComponentData,
  {3863c514-7084-494f-b10b-0ef8a1fb083f}, ! Handle
  Component Data 1,                       ! Name
  {41f99c2a-8fa0-4fba-bd2c-d0c75e367295}, ! UUID
  {8ccf4bc9-a502-49f6-8e35-b1b66dc312fe}, ! Version UUID
  1363981857,                             ! Creation Timestamp
  1363981857,                             ! Version Timestamp
  {3b29ecb5-3034-4458-b2ad-c540bc0180e2}, ! Name of Object 1
  {1cd253b4-b38c-4ff5-a325-77c07555e355}, ! Name of Object 2
  {3a2551f6-b551-44fb-8b83-d604df453a83}, ! Name of Object 3
  {1f524761-0051-4899-89da-31072ff8d6f7}, ! Name of Object 4
  {0a469fda-5dfe-43ce-8e6d-4b94326b54ce}; ! Name of Object 5

