
OS:Version,
  {080389f2-d1b3-4e3f-92fe-f24fb0dbda04}, ! Handle
  0.9.3;                                  ! Version Identifier

OS:Material,
  {3fcf8d78-4d6e-4a37-8b3a-e6470ac2b9b4}, ! Handle
  AtticFloor Insulation [1],              ! Name
  MediumRough,                            ! Roughness
  0.303719,                               ! Thickness {m}
  0.049,                                  ! Conductivity {W/m-K}
  265,                                    ! Density {kg/m3}
  836.8,                                  ! Specific Heat {J/kg-K}
  0.9,                                    ! Thermal Absorptance
  0.7,                                    ! Solar Absorptance
  0.7;                                    ! Visible Absorptance

OS:Material,
  {2b1bba8d-5013-4afb-9283-11b84e9ae0da}, ! Handle
  1/2IN Gypsum Bottom,                    ! Name
  Smooth,                                 ! Roughness
  0.01271,                                ! Thickness {m}
  0.16,                                   ! Conductivity {W/m-K}
  784.9,                                  ! Density {kg/m3}
  830,                                    ! Specific Heat {J/kg-K}
  0.9,                                    ! Thermal Absorptance
  0.92,                                   ! Solar Absorptance
  0.92;                                   ! Visible Absorptance

OS:Material,
  {165976ec-be7c-4802-b867-dd9a011c37ed}, ! Handle
  1/2IN Gypsum Top,                       ! Name
  Smooth,                                 ! Roughness
  0.01271,                                ! Thickness {m}
  0.16,                                   ! Conductivity {W/m-K}
  784.9,                                  ! Density {kg/m3}
  830,                                    ! Specific Heat {J/kg-K}
  0.9,                                    ! Thermal Absorptance
  0.92,                                   ! Solar Absorptance
  0.92;                                   ! Visible Absorptance

OS:Construction,
  {4d60640a-b2c0-4afb-a9d0-1ca66a7dd0d2}, ! Handle
  90.1-2007 Res 5B Attic Floor,           ! Name
  ,                                       ! Surface Rendering Name
  {165976ec-be7c-4802-b867-dd9a011c37ed}, ! Layer 1
  {3fcf8d78-4d6e-4a37-8b3a-e6470ac2b9b4}, ! Layer 2
  {2b1bba8d-5013-4afb-9283-11b84e9ae0da}; ! Layer 3

OS:ComponentCost:LineItem,
  {ff97e717-6693-4386-8438-fb69ff2cfd11}, ! Handle
  90.1-2007 Res 5B Attic Floor,           ! Name
  ,                                       ! Type
  Construction,                           ! Line Item Type
  90.1-2007 Res 5B Attic Floor,           ! Item Name
  ,                                       ! Object End Use Key
  ,                                       ! Quantity {dimensionless}
  35.009,                                 ! Material Cost {$}
  CostPerArea;                            ! Material Cost Units

