
OS:Version,
  {390c6fae-3227-422a-acfd-fd5e2a26e998}, ! Handle
  0.9.3;                                  ! Version Identifier

OS:Construction,
  {2f61120e-ab20-4957-9465-61a62a398cdc}, ! Handle
  90.1-1999 Res B5 Window Fixed,          ! Name
  ,                                       ! Surface Rendering Name
  {4c55f2a0-ae39-4274-a58e-463983babd76}; ! Layer 1

OS:WindowMaterial:Glazing,
  {4c55f2a0-ae39-4274-a58e-463983babd76}, ! Handle
  Theoretical Glass [71],                 ! Name
  SpectralAverage,                        ! Optical Data Type
  ,                                       ! Window Glass Spectral Data Set Name
  0.003,                                  ! Thickness {m}
  0.415593,                               ! Solar Transmittance at Normal Incidence
  0.534407,                               ! Front Side Solar Reflectance at Normal Incidence
  0.534407,                               ! Back Side Solar Reflectance at Normal Incidence
  0.429741,                               ! Visible Transmittance at Normal Incidence
  0.520259,                               ! Front Side Visible Reflectance at Normal Incidence
  0.520259,                               ! Back Side Visible Reflectance at Normal Incidence
  0,                                      ! Infrared Transmittance at Normal Incidence
  0.999,                                  ! Front Side Infrared Hemispherical Emissivity
  0.999,                                  ! Back Side Infrared Hemispherical Emissivity
  9.36219;                                ! Conductivity {W/m-K}

OS:ComponentCost:LineItem,
  {4b10df15-ffbf-48f2-b08e-ac7ce0ad98a9}, ! Handle
  90.1-1999 Res B5 Window Fixed,          ! Name
  ,                                       ! Type
  Construction,                           ! Line Item Type
  90.1-1999 Res B5 Window Fixed,          ! Item Name
  ,                                       ! Object End Use Key
  ,                                       ! Quantity {dimensionless}
  486.627,                                ! Material Cost {$}
  CostPerArea;                            ! Material Cost Units

