
OS:Version,
  {ef2a1b50-600d-4a41-9f3e-61e24516bc5d}, !- Handle
  1.1.0;                                  !- Version Identifier

OS:Construction,
  {fc8f8b36-2699-4544-87d9-6f79a4c7a2a3}, !- Handle
  Trp LoE Film (55) Bronze 6mm/13mm Air,  !- Name
  ,                                       !- Surface Rendering Name
  {bc63e2f1-7e82-4353-b638-9c7972f1e38f}, !- Layer 1
  {90a58dfb-9a4a-4f9d-9092-bd90e300480a}, !- Layer 2
  {6c28ebe2-f289-4a02-b61d-9a58989b76ba}, !- Layer 3
  {90a58dfb-9a4a-4f9d-9092-bd90e300480a}, !- Layer 4
  {dc04632e-a3e0-4f5a-93a9-2309939039b1}; !- Layer 5

OS:WindowMaterial:Glazing,
  {bc63e2f1-7e82-4353-b638-9c7972f1e38f}, !- Handle
  BRONZE 6MM,                             !- Name
  SpectralAverage,                        !- Optical Data Type
  ,                                       !- Window Glass Spectral Data Set Name
  0.006,                                  !- Thickness {m}
  0.482,                                  !- Solar Transmittance at Normal Incidence
  0.054,                                  !- Front Side Solar Reflectance at Normal Incidence
  0.054,                                  !- Back Side Solar Reflectance at Normal Incidence
  0.534,                                  !- Visible Transmittance at Normal Incidence
  0.057,                                  !- Front Side Visible Reflectance at Normal Incidence
  0.057,                                  !- Back Side Visible Reflectance at Normal Incidence
  0,                                      !- Infrared Transmittance at Normal Incidence
  0.84,                                   !- Front Side Infrared Hemispherical Emissivity
  0.84,                                   !- Back Side Infrared Hemispherical Emissivity
  0.9;                                    !- Conductivity {W/m-K}

OS:WindowMaterial:Gas,
  {90a58dfb-9a4a-4f9d-9092-bd90e300480a}, !- Handle
  AIR 13MM,                               !- Name
  Air,                                    !- Gas Type
  0.0127;                                 !- Thickness {m}

OS:WindowMaterial:Glazing,
  {6c28ebe2-f289-4a02-b61d-9a58989b76ba}, !- Handle
  COATED POLY-55,                         !- Name
  SpectralAverage,                        !- Optical Data Type
  ,                                       !- Window Glass Spectral Data Set Name
  0.00051,                                !- Thickness {m}
  0.32,                                   !- Solar Transmittance at Normal Incidence
  0.582,                                  !- Front Side Solar Reflectance at Normal Incidence
  0.593,                                  !- Back Side Solar Reflectance at Normal Incidence
  0.551,                                  !- Visible Transmittance at Normal Incidence
  0.336,                                  !- Front Side Visible Reflectance at Normal Incidence
  0.375,                                  !- Back Side Visible Reflectance at Normal Incidence
  0,                                      !- Infrared Transmittance at Normal Incidence
  0.046,                                  !- Front Side Infrared Hemispherical Emissivity
  0.72,                                   !- Back Side Infrared Hemispherical Emissivity
  0.14;                                   !- Conductivity {W/m-K}

OS:WindowMaterial:Glazing,
  {dc04632e-a3e0-4f5a-93a9-2309939039b1}, !- Handle
  CLEAR 6MM,                              !- Name
  SpectralAverage,                        !- Optical Data Type
  ,                                       !- Window Glass Spectral Data Set Name
  0.006,                                  !- Thickness {m}
  0.775,                                  !- Solar Transmittance at Normal Incidence
  0.071,                                  !- Front Side Solar Reflectance at Normal Incidence
  0.071,                                  !- Back Side Solar Reflectance at Normal Incidence
  0.881,                                  !- Visible Transmittance at Normal Incidence
  0.08,                                   !- Front Side Visible Reflectance at Normal Incidence
  0.08,                                   !- Back Side Visible Reflectance at Normal Incidence
  0,                                      !- Infrared Transmittance at Normal Incidence
  0.84,                                   !- Front Side Infrared Hemispherical Emissivity
  0.84,                                   !- Back Side Infrared Hemispherical Emissivity
  0.9;                                    !- Conductivity {W/m-K}

OS:ComponentData,
  {2e82a309-6908-4e8c-aaa9-06d74a8ead53}, !- Handle
  Component Data 1,                       !- Name
  {c9de9175-089b-4e7d-a4d7-f6b019c5e3cb}, !- UUID
  {9d498190-c390-498e-bb6d-72e5503ec16c}, !- Version UUID
  1384380195,                             !- Creation Timestamp
  1384380195,                             !- Version Timestamp
  {fc8f8b36-2699-4544-87d9-6f79a4c7a2a3}, !- Name of Object 1
  {bc63e2f1-7e82-4353-b638-9c7972f1e38f}, !- Name of Object 2
  {90a58dfb-9a4a-4f9d-9092-bd90e300480a}, !- Name of Object 3
  {6c28ebe2-f289-4a02-b61d-9a58989b76ba}, !- Name of Object 4
  {dc04632e-a3e0-4f5a-93a9-2309939039b1}; !- Name of Object 5

