
OS:Version,
  {f9d58b41-7c6e-4c50-883d-f5fbcffc4547}, !- Handle
  1.1.0;                                  !- Version Identifier

OS:Construction,
  {7564910e-19c6-41b1-aa9b-546dacea11a4}, !- Handle
  Trp LoE Film (55) Bronze 6mm/13mm Air,  !- Name
  ,                                       !- Surface Rendering Name
  {6e9402c1-a848-476a-a4bf-bab13c5b349e}, !- Layer 1
  {7ad40938-f230-4fc1-965e-896497a09b24}, !- Layer 2
  {e091e6bd-4ca3-4e85-b81e-bdcaf5e2dd54}, !- Layer 3
  {7ad40938-f230-4fc1-965e-896497a09b24}, !- Layer 4
  {372cb576-4712-415e-a8df-bea77232fef6}; !- Layer 5

OS:WindowMaterial:Glazing,
  {6e9402c1-a848-476a-a4bf-bab13c5b349e}, !- Handle
  BRONZE 6MM,                             !- Name
  SpectralAverage,                        !- Optical Data Type
  ,                                       !- Window Glass Spectral Data Set Name
  0.006,                                  !- Thickness {m}
  0.482,                                  !- Solar Transmittance at Normal Incidence
  0.054,                                  !- Front Side Solar Reflectance at Normal Incidence
  0.054,                                  !- Back Side Solar Reflectance at Normal Incidence
  0.534,                                  !- Visible Transmittance at Normal Incidence
  0.057,                                  !- Front Side Visible Reflectance at Normal Incidence
  0.057,                                  !- Back Side Visible Reflectance at Normal Incidence
  0,                                      !- Infrared Transmittance at Normal Incidence
  0.84,                                   !- Front Side Infrared Hemispherical Emissivity
  0.84,                                   !- Back Side Infrared Hemispherical Emissivity
  0.9;                                    !- Conductivity {W/m-K}

OS:WindowMaterial:Gas,
  {7ad40938-f230-4fc1-965e-896497a09b24}, !- Handle
  AIR 13MM,                               !- Name
  Air,                                    !- Gas Type
  0.0127;                                 !- Thickness {m}

OS:WindowMaterial:Glazing,
  {e091e6bd-4ca3-4e85-b81e-bdcaf5e2dd54}, !- Handle
  COATED POLY-55,                         !- Name
  SpectralAverage,                        !- Optical Data Type
  ,                                       !- Window Glass Spectral Data Set Name
  0.00051,                                !- Thickness {m}
  0.32,                                   !- Solar Transmittance at Normal Incidence
  0.582,                                  !- Front Side Solar Reflectance at Normal Incidence
  0.593,                                  !- Back Side Solar Reflectance at Normal Incidence
  0.551,                                  !- Visible Transmittance at Normal Incidence
  0.336,                                  !- Front Side Visible Reflectance at Normal Incidence
  0.375,                                  !- Back Side Visible Reflectance at Normal Incidence
  0,                                      !- Infrared Transmittance at Normal Incidence
  0.046,                                  !- Front Side Infrared Hemispherical Emissivity
  0.72,                                   !- Back Side Infrared Hemispherical Emissivity
  0.14;                                   !- Conductivity {W/m-K}

OS:WindowMaterial:Glazing,
  {372cb576-4712-415e-a8df-bea77232fef6}, !- Handle
  CLEAR 6MM,                              !- Name
  SpectralAverage,                        !- Optical Data Type
  ,                                       !- Window Glass Spectral Data Set Name
  0.006,                                  !- Thickness {m}
  0.775,                                  !- Solar Transmittance at Normal Incidence
  0.071,                                  !- Front Side Solar Reflectance at Normal Incidence
  0.071,                                  !- Back Side Solar Reflectance at Normal Incidence
  0.881,                                  !- Visible Transmittance at Normal Incidence
  0.08,                                   !- Front Side Visible Reflectance at Normal Incidence
  0.08,                                   !- Back Side Visible Reflectance at Normal Incidence
  0,                                      !- Infrared Transmittance at Normal Incidence
  0.84,                                   !- Front Side Infrared Hemispherical Emissivity
  0.84,                                   !- Back Side Infrared Hemispherical Emissivity
  0.9;                                    !- Conductivity {W/m-K}

