
OS:Version,
  {00f56601-19b3-457f-9a2d-695a3dbea2a7}, ! Handle
  0.9.3;                                  ! Version Identifier

OS:Construction,
  {15b0c864-98df-417b-ab0c-1e53fc39c608}, ! Handle
  Title 24-2008 Nonres 4 Ext Wall Mass,   ! Name
  ,                                       ! Surface Rendering Name
  {9b754480-f5d2-4265-9b0f-9dd606b2895c}, ! Layer 1
  {1c649a55-5a8b-4b46-8304-dec114d6d224}, ! Layer 2
  {892f324f-a3f8-4f66-be3c-5d7d75a996d9}, ! Layer 3
  {f6c9220c-bebd-4a3b-9a7b-d9bcebb70570}; ! Layer 4

OS:Material,
  {9b754480-f5d2-4265-9b0f-9dd606b2895c}, ! Handle
  1IN Stucco,                             ! Name
  Smooth,                                 ! Roughness
  0.0253,                                 ! Thickness {m}
  0.6918,                                 ! Conductivity {W/m-K}
  1858,                                   ! Density {kg/m3}
  837,                                    ! Specific Heat {J/kg-K}
  0.9,                                    ! Thermal Absorptance
  0.92,                                   ! Solar Absorptance
  0.92;                                   ! Visible Absorptance

OS:Material,
  {1c649a55-5a8b-4b46-8304-dec114d6d224}, ! Handle
  8IN Concrete HW,                        ! Name
  MediumRough,                            ! Roughness
  0.2033,                                 ! Thickness {m}
  1.7296,                                 ! Conductivity {W/m-K}
  2243,                                   ! Density {kg/m3}
  837,                                    ! Specific Heat {J/kg-K}
  0.9,                                    ! Thermal Absorptance
  0.65,                                   ! Solar Absorptance
  0.65;                                   ! Visible Absorptance

OS:Material,
  {892f324f-a3f8-4f66-be3c-5d7d75a996d9}, ! Handle
  Wall Insulation [158],                  ! Name
  MediumRough,                            ! Roughness
  0.0509,                                 ! Thickness {m}
  0.0432,                                 ! Conductivity {W/m-K}
  91,                                     ! Density {kg/m3}
  837,                                    ! Specific Heat {J/kg-K}
  0.9,                                    ! Thermal Absorptance
  0.5,                                    ! Solar Absorptance
  0.5;                                    ! Visible Absorptance

OS:Material,
  {f6c9220c-bebd-4a3b-9a7b-d9bcebb70570}, ! Handle
  1/2IN Gypsum,                           ! Name
  Smooth,                                 ! Roughness
  0.01271,                                ! Thickness {m}
  0.16,                                   ! Conductivity {W/m-K}
  784.9,                                  ! Density {kg/m3}
  830,                                    ! Specific Heat {J/kg-K}
  0.9,                                    ! Thermal Absorptance
  0.92,                                   ! Solar Absorptance
  0.92;                                   ! Visible Absorptance

OS:ComponentCost:LineItem,
  {7b62e7d9-5ab3-49cc-a99b-869127df00be}, ! Handle
  Title 24-2008 Nonres 4 Ext Wall Mass,   ! Name
  ,                                       ! Type
  Construction,                           ! Line Item Type
  Title 24-2008 Nonres 4 Ext Wall Mass,   ! Item Name
  ,                                       ! Object End Use Key
  ,                                       ! Quantity {dimensionless}
  211.895,                                ! Material Cost {$}
  CostPerArea;                            ! Material Cost Units

OS:ComponentData,
  {c57af955-1bfa-4bf5-8650-0084a53f392a}, ! Handle
  Component Data 1,                       ! Name
  {aae8a6b1-6d01-4a45-8bec-88987a8c983d}, ! UUID
  {fed9b380-4f47-41cb-ace2-4bdeac3973a4}, ! Version UUID
  1363982010,                             ! Creation Timestamp
  1363982010,                             ! Version Timestamp
  {15b0c864-98df-417b-ab0c-1e53fc39c608}, ! Name of Object 1
  {9b754480-f5d2-4265-9b0f-9dd606b2895c}, ! Name of Object 2
  {1c649a55-5a8b-4b46-8304-dec114d6d224}, ! Name of Object 3
  {892f324f-a3f8-4f66-be3c-5d7d75a996d9}, ! Name of Object 4
  {f6c9220c-bebd-4a3b-9a7b-d9bcebb70570}, ! Name of Object 5
  {7b62e7d9-5ab3-49cc-a99b-869127df00be}; ! Name of Object 6

