
OS:Version,
  {4169c54a-8cbb-4a5e-9bb1-90197e4924e3}, ! Handle
  0.9.3;                                  ! Version Identifier

OS:Construction,
  {b3ee6f41-4bc3-46e1-adda-2f74803e2dc3}, ! Handle
  Title 24-2008 Nonres 4 Ext Wall Mass,   ! Name
  ,                                       ! Surface Rendering Name
  {61b1c5ed-bcd0-49e7-ac41-c3b851e2ee60}, ! Layer 1
  {0384358e-1a23-43d6-9e95-a874a24c1a10}, ! Layer 2
  {247b3e3c-b9bb-4d69-bb7a-6a1d6efcbdf8}, ! Layer 3
  {ca27dc8d-6261-4e55-a1ed-46e6a9606922}; ! Layer 4

OS:Material,
  {61b1c5ed-bcd0-49e7-ac41-c3b851e2ee60}, ! Handle
  1IN Stucco,                             ! Name
  Smooth,                                 ! Roughness
  0.0253,                                 ! Thickness {m}
  0.6918,                                 ! Conductivity {W/m-K}
  1858,                                   ! Density {kg/m3}
  837,                                    ! Specific Heat {J/kg-K}
  0.9,                                    ! Thermal Absorptance
  0.92,                                   ! Solar Absorptance
  0.92;                                   ! Visible Absorptance

OS:Material,
  {0384358e-1a23-43d6-9e95-a874a24c1a10}, ! Handle
  8IN Concrete HW,                        ! Name
  MediumRough,                            ! Roughness
  0.2033,                                 ! Thickness {m}
  1.7296,                                 ! Conductivity {W/m-K}
  2243,                                   ! Density {kg/m3}
  837,                                    ! Specific Heat {J/kg-K}
  0.9,                                    ! Thermal Absorptance
  0.65,                                   ! Solar Absorptance
  0.65;                                   ! Visible Absorptance

OS:Material,
  {247b3e3c-b9bb-4d69-bb7a-6a1d6efcbdf8}, ! Handle
  Wall Insulation [158],                  ! Name
  MediumRough,                            ! Roughness
  0.0509,                                 ! Thickness {m}
  0.0432,                                 ! Conductivity {W/m-K}
  91,                                     ! Density {kg/m3}
  837,                                    ! Specific Heat {J/kg-K}
  0.9,                                    ! Thermal Absorptance
  0.5,                                    ! Solar Absorptance
  0.5;                                    ! Visible Absorptance

OS:Material,
  {ca27dc8d-6261-4e55-a1ed-46e6a9606922}, ! Handle
  1/2IN Gypsum,                           ! Name
  Smooth,                                 ! Roughness
  0.01271,                                ! Thickness {m}
  0.16,                                   ! Conductivity {W/m-K}
  784.9,                                  ! Density {kg/m3}
  830,                                    ! Specific Heat {J/kg-K}
  0.9,                                    ! Thermal Absorptance
  0.92,                                   ! Solar Absorptance
  0.92;                                   ! Visible Absorptance

OS:ComponentCost:LineItem,
  {e218bcc3-dfa6-46b4-82d6-5582614365a3}, ! Handle
  Title 24-2008 Nonres 4 Ext Wall Mass,   ! Name
  ,                                       ! Type
  Construction,                           ! Line Item Type
  Title 24-2008 Nonres 4 Ext Wall Mass,   ! Item Name
  ,                                       ! Object End Use Key
  ,                                       ! Quantity {dimensionless}
  211.895,                                ! Material Cost {$}
  CostPerArea;                            ! Material Cost Units

