
OS:Version,
  {f234708f-11c3-453c-8ad5-6732b0e3a9ec}, ! Handle
  0.9.3;                                  ! Version Identifier

OS:Construction,
  {3861d6db-beeb-4bab-8113-47b6fd3f7610}, ! Handle
  90.1-1999 Nonres B24 Roof Metal Building, ! Name
  ,                                       ! Surface Rendering Name
  {6cdc36ac-793a-479f-9a35-e3085d65e679}, ! Layer 1
  {3b4013fc-181d-4c07-ad8c-40f591737560}; ! Layer 2

OS:Material,
  {6cdc36ac-793a-479f-9a35-e3085d65e679}, ! Handle
  Metal Roofing,                          ! Name
  MediumSmooth,                           ! Roughness
  0.001524,                               ! Thickness {m}
  45.006,                                 ! Conductivity {W/m-K}
  7680,                                   ! Density {kg/m3}
  418.4,                                  ! Specific Heat {J/kg-K}
  0.9,                                    ! Thermal Absorptance
  0.7,                                    ! Solar Absorptance
  0.3;                                    ! Visible Absorptance

OS:Material,
  {3b4013fc-181d-4c07-ad8c-40f591737560}, ! Handle
  Roof Insulation [8],                    ! Name
  MediumRough,                            ! Roughness
  0.166908,                               ! Thickness {m}
  0.049,                                  ! Conductivity {W/m-K}
  265,                                    ! Density {kg/m3}
  836.8,                                  ! Specific Heat {J/kg-K}
  0.9,                                    ! Thermal Absorptance
  0.7,                                    ! Solar Absorptance
  0.7;                                    ! Visible Absorptance

OS:ComponentCost:LineItem,
  {16e32c1c-33cc-4364-97ff-abb44c1fc5e7}, ! Handle
  90.1-1999 Nonres B24 Roof Metal Building, ! Name
  ,                                       ! Type
  Construction,                           ! Line Item Type
  90.1-1999 Nonres B24 Roof Metal Building, ! Item Name
  ,                                       ! Object End Use Key
  ,                                       ! Quantity {dimensionless}
  42.184,                                 ! Material Cost {$}
  CostPerArea;                            ! Material Cost Units

OS:ComponentData,
  {b3103ecb-247d-4ecb-8b7c-a89318e2e0c5}, ! Handle
  Component Data 1,                       ! Name
  {d97c58b1-3839-4748-ab9a-7cc019ca4498}, ! UUID
  {7464bdd1-4bad-4e3a-8267-ae362c4c14b8}, ! Version UUID
  1363981147,                             ! Creation Timestamp
  1363981147,                             ! Version Timestamp
  {3861d6db-beeb-4bab-8113-47b6fd3f7610}, ! Name of Object 1
  {6cdc36ac-793a-479f-9a35-e3085d65e679}, ! Name of Object 2
  {3b4013fc-181d-4c07-ad8c-40f591737560}, ! Name of Object 3
  {16e32c1c-33cc-4364-97ff-abb44c1fc5e7}; ! Name of Object 4

