
OS:Version,
  {ed1be872-8913-4aa1-9cf3-a47a98c1ea28}, ! Handle
  0.9.3;                                  ! Version Identifier

OS:Material,
  {958405ea-e3f5-4257-9962-45ea06eef9bd}, ! Handle
  Metal Roofing,                          ! Name
  MediumSmooth,                           ! Roughness
  0.001524,                               ! Thickness {m}
  45.006,                                 ! Conductivity {W/m-K}
  7680,                                   ! Density {kg/m3}
  418.4,                                  ! Specific Heat {J/kg-K}
  0.9,                                    ! Thermal Absorptance
  0.7,                                    ! Solar Absorptance
  0.3;                                    ! Visible Absorptance

OS:ComponentCost:LineItem,
  {3a38a995-1b7a-479b-98e4-c21ef00e1538}, ! Handle
  90.1-1999 Nonres B24 Roof Metal Building, ! Name
  ,                                       ! Type
  Construction,                           ! Line Item Type
  90.1-1999 Nonres B24 Roof Metal Building, ! Item Name
  ,                                       ! Object End Use Key
  ,                                       ! Quantity {dimensionless}
  42.184,                                 ! Material Cost {$}
  CostPerArea;                            ! Material Cost Units

OS:Material,
  {2aa31103-8116-4c25-9252-98dac6eab150}, ! Handle
  Roof Insulation [8],                    ! Name
  MediumRough,                            ! Roughness
  0.166908,                               ! Thickness {m}
  0.049,                                  ! Conductivity {W/m-K}
  265,                                    ! Density {kg/m3}
  836.8,                                  ! Specific Heat {J/kg-K}
  0.9,                                    ! Thermal Absorptance
  0.7,                                    ! Solar Absorptance
  0.7;                                    ! Visible Absorptance

OS:Construction,
  {8903d2ca-00a6-469c-a49e-e81b690e778b}, ! Handle
  90.1-1999 Nonres B24 Roof Metal Building, ! Name
  ,                                       ! Surface Rendering Name
  {958405ea-e3f5-4257-9962-45ea06eef9bd}, ! Layer 1
  {2aa31103-8116-4c25-9252-98dac6eab150}; ! Layer 2

