
OS:Version,
  {6bfd119e-992f-44dd-bba1-67cf03b5a936}, ! Handle
  0.9.3;                                  ! Version Identifier

OS:ComponentCost:LineItem,
  {bc680541-3271-48b4-a265-0e7ebfa1b192}, ! Handle
  AEDG K12 Nonres 7A Window Fixed,        ! Name
  ,                                       ! Type
  Construction,                           ! Line Item Type
  AEDG K12 Nonres 7A Window Fixed,        ! Item Name
  ,                                       ! Object End Use Key
  ,                                       ! Quantity {dimensionless}
  439.606,                                ! Material Cost {$}
  CostPerArea;                            ! Material Cost Units

OS:Construction,
  {3f574f92-66ee-4b93-92f9-e335ac58a640}, ! Handle
  AEDG K12 Nonres 7A Window Fixed,        ! Name
  ,                                       ! Surface Rendering Name
  {1f2acae3-b14a-4692-bcf2-1e5073fe9a79}; ! Layer 1

OS:WindowMaterial:Glazing,
  {1f2acae3-b14a-4692-bcf2-1e5073fe9a79}, ! Handle
  Theoretical Glass [99],                 ! Name
  SpectralAverage,                        ! Optical Data Type
  ,                                       ! Window Glass Spectral Data Set Name
  0.003,                                  ! Thickness {m}
  0.62062,                                ! Solar Transmittance at Normal Incidence
  0.32938,                                ! Front Side Solar Reflectance at Normal Incidence
  0.32938,                                ! Back Side Solar Reflectance at Normal Incidence
  0.639644,                               ! Visible Transmittance at Normal Incidence
  0.310356,                               ! Front Side Visible Reflectance at Normal Incidence
  0.310356,                               ! Back Side Visible Reflectance at Normal Incidence
  0,                                      ! Infrared Transmittance at Normal Incidence
  0.9,                                    ! Front Side Infrared Hemispherical Emissivity
  0.9,                                    ! Back Side Infrared Hemispherical Emissivity
  0.0206813;                              ! Conductivity {W/m-K}

