
OS:Version,
  {2e799c70-e9c9-4d67-a407-c35a01633b70}, ! Handle
  0.9.3;                                  ! Version Identifier

OS:Material,
  {b07a2608-7bf0-45b0-9402-032cbd6e481f}, ! Handle
  MAT-CC05 8 HW CONCRETE,                 ! Name
  Rough,                                  ! Roughness
  0.20321,                                ! Thickness {m}
  1.311,                                  ! Conductivity {W/m-K}
  2240,                                   ! Density {kg/m3}
  836.8,                                  ! Specific Heat {J/kg-K}
  0.9,                                    ! Thermal Absorptance
  0.7,                                    ! Solar Absorptance
  0.7;                                    ! Visible Absorptance

OS:Construction,
  {32318cf3-21ba-4333-abad-6cface6a237d}, ! Handle
  90.1-2004 Res 3A Ext Slab Unheated - 8in Slab without Carpet, ! Name
  ,                                       ! Surface Rendering Name
  {b07a2608-7bf0-45b0-9402-032cbd6e481f}; ! Layer 1

OS:ComponentCost:LineItem,
  {b79ae942-787e-4643-bd8f-580a6074668e}, ! Handle
  90.1-2004 Res 3A Ext Slab Unheated - 8in Slab without Carpet, ! Name
  ,                                       ! Type
  Construction,                           ! Line Item Type
  90.1-2004 Res 3A Ext Slab Unheated - 8in Slab without Carpet, ! Item Name
  ,                                       ! Object End Use Key
  ,                                       ! Quantity {dimensionless}
  45.52,                                  ! Material Cost {$}
  CostPerArea;                            ! Material Cost Units

