
OS:Version,
  {a6f9dd84-cef4-11e7-abc4-cec278b6b50a}, !- Handle
  1.14.0;                                 !- Version Identifier

OS:Material,
  {a6f9e310-cef4-11e7-abc4-cec278b6b50a}, ! Handle
  Gips-Kalk Innenputz 1.5cm,              ! Name
  Smooth,                                 ! Roughness
  0.015,                                  ! Thickness {m}
  0.7,                                    ! Conductivity {W/m-K}
  1100,                                   ! Density {kg/m3}
  1010,                                   ! Specific Heat {J/kg-K}
  0.3,                                    ! Thermal Absorptance
  0.3,                                    ! Solar Absorptance
  0.3;                                    ! Visible Absorptance

OS:Material,
  {a6f9df0a-cef4-11e7-abc4-cec278b6b50a}, ! Handle
  Vollziegel 25cm,                        ! Name
  Smooth,                                 ! Roughness
  0.25,                                   ! Thickness {m}
  0.81,                                   ! Conductivity {W/m-K}
  1800,                                   ! Density {kg/m3}
  1000,                                   ! Specific Heat {J/kg-K}
  0.7,                                    ! Thermal Absorptance
  0.7,                                    ! Solar Absorptance
  0.7;                                    ! Visible Absorptance

OS:Construction,
  {a6f9e4b4-cef4-11e7-abc4-cec278b6b50a}, ! Handle
  U-W DE MFH ExtWall -1948 10,            ! Name
  ,                                       ! Surface Rendering Name
  {a6f9e3ec-cef4-11e7-abc4-cec278b6b50a}, ! Layer 1
  {a6f9df0a-cef4-11e7-abc4-cec278b6b50a}, ! Layer 2
  {a6f9e310-cef4-11e7-abc4-cec278b6b50a}; ! Layer 3

OS:Material,
  {a6f9e3ec-cef4-11e7-abc4-cec278b6b50a}, ! Handle
  Klinker 12.5cm,                         ! Name
  Smooth,                                 ! Roughness
  0.125,                                  ! Thickness {m}
  0.81,                                   ! Conductivity {W/m-K}
  1400,                                   ! Density {kg/m3}
  1010,                                   ! Specific Heat {J/kg-K}
  0.3,                                    ! Thermal Absorptance
  0.3,                                    ! Solar Absorptance
  0.3;                                    ! Visible Absorptance

