
OS:Version,
  {4019391d-d790-4db6-8e8c-34d19dbb89d5}, ! Handle
  0.9.3;                                  ! Version Identifier

OS:ComponentCost:LineItem,
  {b0b75d10-084f-4c60-8d97-929230bdba09}, ! Handle
  90.1-2004 Res 1A Ext Slab Unheated - 8in Slab with Carpet, ! Name
  ,                                       ! Type
  Construction,                           ! Line Item Type
  90.1-2004 Res 1A Ext Slab Unheated - 8in Slab with Carpet, ! Item Name
  ,                                       ! Object End Use Key
  ,                                       ! Quantity {dimensionless}
  45.52,                                  ! Material Cost {$}
  CostPerArea;                            ! Material Cost Units

OS:Material:NoMass,
  {9065c6bb-8e27-4794-8fe8-b5cfa9cf013d}, ! Handle
  CP02 CARPET PAD,                        ! Name
  VeryRough,                              ! Roughness
  0.21648,                                ! Thermal Resistance {m2-K/W}
  0.9,                                    ! Thermal Absorptance
  0.7,                                    ! Solar Absorptance
  0.8;                                    ! Visible Absorptance

OS:Construction,
  {d92ffcbc-21e5-41b1-a9b6-8d28ae440dda}, ! Handle
  90.1-2004 Res 1A Ext Slab Unheated - 8in Slab with Carpet, ! Name
  ,                                       ! Surface Rendering Name
  {20787b5e-1dd3-4ab2-94b0-02a31ae91525}, ! Layer 1
  {9065c6bb-8e27-4794-8fe8-b5cfa9cf013d}; ! Layer 2

OS:Material,
  {20787b5e-1dd3-4ab2-94b0-02a31ae91525}, ! Handle
  MAT-CC05 8 HW CONCRETE,                 ! Name
  Rough,                                  ! Roughness
  0.20321,                                ! Thickness {m}
  1.311,                                  ! Conductivity {W/m-K}
  2240,                                   ! Density {kg/m3}
  836.8,                                  ! Specific Heat {J/kg-K}
  0.9,                                    ! Thermal Absorptance
  0.7,                                    ! Solar Absorptance
  0.7;                                    ! Visible Absorptance

