
OS:Version,
  {49e79277-deff-4691-a5ce-aef074a7805f}, ! Handle
  0.9.3;                                  ! Version Identifier

OS:Material,
  {b1d4661a-0328-43bc-8162-0fed2fb19c8f}, ! Handle
  MAT-CC05 4 HW CONCRETE,                 ! Name
  Rough,                                  ! Roughness
  0.1016,                                 ! Thickness {m}
  1.311,                                  ! Conductivity {W/m-K}
  2240,                                   ! Density {kg/m3}
  836.8,                                  ! Specific Heat {J/kg-K}
  0.9,                                    ! Thermal Absorptance
  0.7,                                    ! Solar Absorptance
  0.7;                                    ! Visible Absorptance

OS:ComponentCost:LineItem,
  {2c203481-c5b9-4f0f-81d8-c27624314b56}, ! Handle
  90.1-2001 Nonres B21 Ext Slab Unheated - 4in Slab without Carpet, ! Name
  ,                                       ! Type
  Construction,                           ! Line Item Type
  90.1-2001 Nonres B21 Ext Slab Unheated - 4in Slab without Carpet, ! Item Name
  ,                                       ! Object End Use Key
  ,                                       ! Quantity {dimensionless}
  45.52,                                  ! Material Cost {$}
  CostPerArea;                            ! Material Cost Units

OS:Construction,
  {1998d744-5483-4814-8f7e-ad12bd379f64}, ! Handle
  90.1-2001 Nonres B21 Ext Slab Unheated - 4in Slab without Carpet, ! Name
  ,                                       ! Surface Rendering Name
  {b1d4661a-0328-43bc-8162-0fed2fb19c8f}; ! Layer 1

