
OS:Version,
  {8da9fcf7-4784-4048-9da2-112972bedb5c}, !- Handle
  1.1.0;                                  !- Version Identifier

OS:Construction,
  {d96cb644-7d2e-4f51-b4c8-91a9cd73add8}, !- Handle
  Trp LoE Film (88) Clr 3mm/13mm Air,     !- Name
  ,                                       !- Surface Rendering Name
  {3900fd27-5f24-447f-ade5-bb44214bfcc8}, !- Layer 1
  {c5bb003a-4ed0-48c5-948c-206c4b3e0c5d}, !- Layer 2
  {835e30a7-9de5-43b1-aa0b-4cca578d610b}, !- Layer 3
  {c5bb003a-4ed0-48c5-948c-206c4b3e0c5d}, !- Layer 4
  {3900fd27-5f24-447f-ade5-bb44214bfcc8}; !- Layer 5

OS:WindowMaterial:Glazing,
  {3900fd27-5f24-447f-ade5-bb44214bfcc8}, !- Handle
  CLEAR 3MM,                              !- Name
  SpectralAverage,                        !- Optical Data Type
  ,                                       !- Window Glass Spectral Data Set Name
  0.003,                                  !- Thickness {m}
  0.837,                                  !- Solar Transmittance at Normal Incidence
  0.075,                                  !- Front Side Solar Reflectance at Normal Incidence
  0.075,                                  !- Back Side Solar Reflectance at Normal Incidence
  0.898,                                  !- Visible Transmittance at Normal Incidence
  0.081,                                  !- Front Side Visible Reflectance at Normal Incidence
  0.081,                                  !- Back Side Visible Reflectance at Normal Incidence
  0,                                      !- Infrared Transmittance at Normal Incidence
  0.84,                                   !- Front Side Infrared Hemispherical Emissivity
  0.84,                                   !- Back Side Infrared Hemispherical Emissivity
  0.9;                                    !- Conductivity {W/m-K}

OS:WindowMaterial:Gas,
  {c5bb003a-4ed0-48c5-948c-206c4b3e0c5d}, !- Handle
  AIR 13MM,                               !- Name
  Air,                                    !- Gas Type
  0.0127;                                 !- Thickness {m}

OS:WindowMaterial:Glazing,
  {835e30a7-9de5-43b1-aa0b-4cca578d610b}, !- Handle
  COATED POLY-88,                         !- Name
  SpectralAverage,                        !- Optical Data Type
  ,                                       !- Window Glass Spectral Data Set Name
  0.00051,                                !- Thickness {m}
  0.656,                                  !- Solar Transmittance at Normal Incidence
  0.249,                                  !- Front Side Solar Reflectance at Normal Incidence
  0.227,                                  !- Back Side Solar Reflectance at Normal Incidence
  0.868,                                  !- Visible Transmittance at Normal Incidence
  0.064,                                  !- Front Side Visible Reflectance at Normal Incidence
  0.06,                                   !- Back Side Visible Reflectance at Normal Incidence
  0,                                      !- Infrared Transmittance at Normal Incidence
  0.136,                                  !- Front Side Infrared Hemispherical Emissivity
  0.72,                                   !- Back Side Infrared Hemispherical Emissivity
  0.14;                                   !- Conductivity {W/m-K}

