
OS:Version,
  {49d8b990-ed39-475e-a994-e4f75e4113aa}, ! Handle
  0.9.3;                                  ! Version Identifier

OS:Material,
  {e13e13c9-9449-4af1-b649-8b67c1b20b31}, ! Handle
  1/2IN Gypsum,                           ! Name
  Smooth,                                 ! Roughness
  0.01271,                                ! Thickness {m}
  0.16,                                   ! Conductivity {W/m-K}
  784.9,                                  ! Density {kg/m3}
  830,                                    ! Specific Heat {J/kg-K}
  0.9,                                    ! Thermal Absorptance
  0.92,                                   ! Solar Absorptance
  0.92;                                   ! Visible Absorptance

OS:Material,
  {0957c4dc-ae79-4fe2-aa17-bcedd3b8465e}, ! Handle
  Wall Insulation [158],                  ! Name
  MediumRough,                            ! Roughness
  0.0509,                                 ! Thickness {m}
  0.0432,                                 ! Conductivity {W/m-K}
  91,                                     ! Density {kg/m3}
  837,                                    ! Specific Heat {J/kg-K}
  0.9,                                    ! Thermal Absorptance
  0.5,                                    ! Solar Absorptance
  0.5;                                    ! Visible Absorptance

OS:ComponentCost:LineItem,
  {c75aa975-2e05-49cf-a976-ac6e05e90b1a}, ! Handle
  Title 24-2008 Nonres 15 Ext Wall Mass,  ! Name
  ,                                       ! Type
  Construction,                           ! Line Item Type
  Title 24-2008 Nonres 15 Ext Wall Mass,  ! Item Name
  ,                                       ! Object End Use Key
  ,                                       ! Quantity {dimensionless}
  211.895,                                ! Material Cost {$}
  CostPerArea;                            ! Material Cost Units

OS:Construction,
  {632a7f99-c117-482f-9662-6591de4710f5}, ! Handle
  Title 24-2008 Nonres 15 Ext Wall Mass,  ! Name
  ,                                       ! Surface Rendering Name
  {b858f76f-6586-4f9a-aadd-a1ac757bf042}, ! Layer 1
  {b2f26ef2-6496-474e-b340-ad9c27fd4145}, ! Layer 2
  {0957c4dc-ae79-4fe2-aa17-bcedd3b8465e}, ! Layer 3
  {e13e13c9-9449-4af1-b649-8b67c1b20b31}; ! Layer 4

OS:Material,
  {b858f76f-6586-4f9a-aadd-a1ac757bf042}, ! Handle
  1IN Stucco,                             ! Name
  Smooth,                                 ! Roughness
  0.0253,                                 ! Thickness {m}
  0.6918,                                 ! Conductivity {W/m-K}
  1858,                                   ! Density {kg/m3}
  837,                                    ! Specific Heat {J/kg-K}
  0.9,                                    ! Thermal Absorptance
  0.92,                                   ! Solar Absorptance
  0.92;                                   ! Visible Absorptance

OS:Material,
  {b2f26ef2-6496-474e-b340-ad9c27fd4145}, ! Handle
  8IN Concrete HW,                        ! Name
  MediumRough,                            ! Roughness
  0.2033,                                 ! Thickness {m}
  1.7296,                                 ! Conductivity {W/m-K}
  2243,                                   ! Density {kg/m3}
  837,                                    ! Specific Heat {J/kg-K}
  0.9,                                    ! Thermal Absorptance
  0.65,                                   ! Solar Absorptance
  0.65;                                   ! Visible Absorptance

