
OS:Version,
  {ff1be880-3aa6-4679-8007-5dd85cb86a9b}, ! Handle
  0.9.3;                                  ! Version Identifier

OS:Construction,
  {85c773c6-3804-4abe-82ed-9d706b8c6bb6}, ! Handle
  Title 24-2008 Nonres 15 Ext Wall Mass,  ! Name
  ,                                       ! Surface Rendering Name
  {77c8c7a8-e9fe-46a4-85ad-4f4a6bcf4466}, ! Layer 1
  {3e8f95be-acf0-4cf2-8c8a-2aba265acc60}, ! Layer 2
  {cd9e5cb5-86ec-4462-8015-1e27167b5964}, ! Layer 3
  {b49e42b8-f7d9-410a-a786-82687a6a2955}; ! Layer 4

OS:Material,
  {77c8c7a8-e9fe-46a4-85ad-4f4a6bcf4466}, ! Handle
  1IN Stucco,                             ! Name
  Smooth,                                 ! Roughness
  0.0253,                                 ! Thickness {m}
  0.6918,                                 ! Conductivity {W/m-K}
  1858,                                   ! Density {kg/m3}
  837,                                    ! Specific Heat {J/kg-K}
  0.9,                                    ! Thermal Absorptance
  0.92,                                   ! Solar Absorptance
  0.92;                                   ! Visible Absorptance

OS:Material,
  {3e8f95be-acf0-4cf2-8c8a-2aba265acc60}, ! Handle
  8IN Concrete HW,                        ! Name
  MediumRough,                            ! Roughness
  0.2033,                                 ! Thickness {m}
  1.7296,                                 ! Conductivity {W/m-K}
  2243,                                   ! Density {kg/m3}
  837,                                    ! Specific Heat {J/kg-K}
  0.9,                                    ! Thermal Absorptance
  0.65,                                   ! Solar Absorptance
  0.65;                                   ! Visible Absorptance

OS:Material,
  {cd9e5cb5-86ec-4462-8015-1e27167b5964}, ! Handle
  Wall Insulation [158],                  ! Name
  MediumRough,                            ! Roughness
  0.0509,                                 ! Thickness {m}
  0.0432,                                 ! Conductivity {W/m-K}
  91,                                     ! Density {kg/m3}
  837,                                    ! Specific Heat {J/kg-K}
  0.9,                                    ! Thermal Absorptance
  0.5,                                    ! Solar Absorptance
  0.5;                                    ! Visible Absorptance

OS:Material,
  {b49e42b8-f7d9-410a-a786-82687a6a2955}, ! Handle
  1/2IN Gypsum,                           ! Name
  Smooth,                                 ! Roughness
  0.01271,                                ! Thickness {m}
  0.16,                                   ! Conductivity {W/m-K}
  784.9,                                  ! Density {kg/m3}
  830,                                    ! Specific Heat {J/kg-K}
  0.9,                                    ! Thermal Absorptance
  0.92,                                   ! Solar Absorptance
  0.92;                                   ! Visible Absorptance

OS:ComponentCost:LineItem,
  {991cb92d-beb4-41dc-87b8-eee50beac37f}, ! Handle
  Title 24-2008 Nonres 15 Ext Wall Mass,  ! Name
  ,                                       ! Type
  Construction,                           ! Line Item Type
  Title 24-2008 Nonres 15 Ext Wall Mass,  ! Item Name
  ,                                       ! Object End Use Key
  ,                                       ! Quantity {dimensionless}
  211.895,                                ! Material Cost {$}
  CostPerArea;                            ! Material Cost Units

OS:ComponentData,
  {7822fccc-a6c3-4a01-859a-708e8f0c828f}, ! Handle
  Component Data 1,                       ! Name
  {b6f6f5ab-b2fb-4c4a-815d-64cbce1c3b50}, ! UUID
  {35e620f5-d397-42d1-ab39-6e4b1a0cdaf2}, ! Version UUID
  1363982111,                             ! Creation Timestamp
  1363982111,                             ! Version Timestamp
  {85c773c6-3804-4abe-82ed-9d706b8c6bb6}, ! Name of Object 1
  {77c8c7a8-e9fe-46a4-85ad-4f4a6bcf4466}, ! Name of Object 2
  {3e8f95be-acf0-4cf2-8c8a-2aba265acc60}, ! Name of Object 3
  {cd9e5cb5-86ec-4462-8015-1e27167b5964}, ! Name of Object 4
  {b49e42b8-f7d9-410a-a786-82687a6a2955}, ! Name of Object 5
  {991cb92d-beb4-41dc-87b8-eee50beac37f}; ! Name of Object 6

