
OS:Version,
  {2657ed3e-265a-4ff9-b4f9-e31c55b82da1}, !- Handle
  1.1.0;                                  !- Version Identifier

OS:Construction,
  {99df0ce8-8417-45bf-bc79-1e6ed909a847}, !- Handle
  Sgl Blue 6mm,                           !- Name
  ,                                       !- Surface Rendering Name
  {f619cade-8cd2-4cef-b825-147ebf603c29}; !- Layer 1

OS:WindowMaterial:Glazing,
  {f619cade-8cd2-4cef-b825-147ebf603c29}, !- Handle
  BLUE 6MM,                               !- Name
  SpectralAverage,                        !- Optical Data Type
  ,                                       !- Window Glass Spectral Data Set Name
  0.006,                                  !- Thickness {m}
  0.48,                                   !- Solar Transmittance at Normal Incidence
  0.05,                                   !- Front Side Solar Reflectance at Normal Incidence
  0.05,                                   !- Back Side Solar Reflectance at Normal Incidence
  0.57,                                   !- Visible Transmittance at Normal Incidence
  0.06,                                   !- Front Side Visible Reflectance at Normal Incidence
  0.06,                                   !- Back Side Visible Reflectance at Normal Incidence
  0,                                      !- Infrared Transmittance at Normal Incidence
  0.84,                                   !- Front Side Infrared Hemispherical Emissivity
  0.84,                                   !- Back Side Infrared Hemispherical Emissivity
  0.9;                                    !- Conductivity {W/m-K}

