
OS:Version,
  {239c5007-e02f-40d4-9d77-20922619c50d}, ! Handle
  0.9.3;                                  ! Version Identifier

OS:Construction,
  {8331bfaa-a617-4fdf-a4fc-2a8e4fce103f}, ! Handle
  90.1 Windows Window Fixed 2117 Mtl-ClrSbe-Std-Clr, ! Name
  ,                                       ! Surface Rendering Name
  {3513de93-70ee-4704-bb91-0c5a4772c3dc}; ! Layer 1

OS:WindowMaterial:Glazing,
  {3513de93-70ee-4704-bb91-0c5a4772c3dc}, ! Handle
  Theoretical Glass [326],                ! Name
  SpectralAverage,                        ! Optical Data Type
  ,                                       ! Window Glass Spectral Data Set Name
  0.003,                                  ! Thickness {m}
  0.432917,                               ! Solar Transmittance at Normal Incidence
  0.517083,                               ! Front Side Solar Reflectance at Normal Incidence
  0.517083,                               ! Back Side Solar Reflectance at Normal Incidence
  0.450308,                               ! Visible Transmittance at Normal Incidence
  0.499692,                               ! Front Side Visible Reflectance at Normal Incidence
  0.499692,                               ! Back Side Visible Reflectance at Normal Incidence
  0,                                      ! Infrared Transmittance at Normal Incidence
  0.9,                                    ! Front Side Infrared Hemispherical Emissivity
  0.9,                                    ! Back Side Infrared Hemispherical Emissivity
  0.0212984;                              ! Conductivity {W/m-K}

OS:ComponentCost:LineItem,
  {1d7ba3a2-8d4a-4081-abfb-5a8c6482d055}, ! Handle
  90.1 Windows Window Fixed 2117 Mtl-ClrSbe-Std-Clr, ! Name
  ,                                       ! Type
  Construction,                           ! Line Item Type
  90.1 Windows Window Fixed 2117 Mtl-ClrSbe-Std-Clr, ! Item Name
  ,                                       ! Object End Use Key
  ,                                       ! Quantity {dimensionless}
  0,                                      ! Material Cost {$}
  CostPerArea;                            ! Material Cost Units

