
OS:Version,
  {c3165d50-490b-4edb-99db-10bfd56d7d80}, !- Handle
  1.1.0;                                  !- Version Identifier

OS:Construction,
  {87600908-a9d5-4477-b2be-5b1a7b28e28c}, !- Handle
  Dbl Ref-A-M Clr 6mm/6mm Air,            !- Name
  ,                                       !- Surface Rendering Name
  {ef639790-9efd-48f6-ab57-907e4667cd7d}, !- Layer 1
  {09262c86-c6eb-4471-a786-1697a9d5055d}, !- Layer 2
  {fa3c1786-239e-42eb-826d-f5f4e12c900b}; !- Layer 3

OS:WindowMaterial:Glazing,
  {ef639790-9efd-48f6-ab57-907e4667cd7d}, !- Handle
  REF A CLEAR MID 6MM,                    !- Name
  SpectralAverage,                        !- Optical Data Type
  ,                                       !- Window Glass Spectral Data Set Name
  0.006,                                  !- Thickness {m}
  0.11,                                   !- Solar Transmittance at Normal Incidence
  0.27,                                   !- Front Side Solar Reflectance at Normal Incidence
  0.43,                                   !- Back Side Solar Reflectance at Normal Incidence
  0.14,                                   !- Visible Transmittance at Normal Incidence
  0.31,                                   !- Front Side Visible Reflectance at Normal Incidence
  0.35,                                   !- Back Side Visible Reflectance at Normal Incidence
  0,                                      !- Infrared Transmittance at Normal Incidence
  0.84,                                   !- Front Side Infrared Hemispherical Emissivity
  0.47,                                   !- Back Side Infrared Hemispherical Emissivity
  0.9;                                    !- Conductivity {W/m-K}

OS:WindowMaterial:Gas,
  {09262c86-c6eb-4471-a786-1697a9d5055d}, !- Handle
  AIR 6MM,                                !- Name
  Air,                                    !- Gas Type
  0.0063;                                 !- Thickness {m}

OS:WindowMaterial:Glazing,
  {fa3c1786-239e-42eb-826d-f5f4e12c900b}, !- Handle
  CLEAR 6MM,                              !- Name
  SpectralAverage,                        !- Optical Data Type
  ,                                       !- Window Glass Spectral Data Set Name
  0.006,                                  !- Thickness {m}
  0.775,                                  !- Solar Transmittance at Normal Incidence
  0.071,                                  !- Front Side Solar Reflectance at Normal Incidence
  0.071,                                  !- Back Side Solar Reflectance at Normal Incidence
  0.881,                                  !- Visible Transmittance at Normal Incidence
  0.08,                                   !- Front Side Visible Reflectance at Normal Incidence
  0.08,                                   !- Back Side Visible Reflectance at Normal Incidence
  0,                                      !- Infrared Transmittance at Normal Incidence
  0.84,                                   !- Front Side Infrared Hemispherical Emissivity
  0.84,                                   !- Back Side Infrared Hemispherical Emissivity
  0.9;                                    !- Conductivity {W/m-K}

