
OS:Version,
  {b233e237-2e47-4ae0-be57-6d2eb026d392}, ! Handle
  0.9.3;                                  ! Version Identifier

OS:Construction,
  {f0749e83-1abc-4c8d-b6c2-d7e3c1e772c8}, ! Handle
  90.1-1999 Nonres B11 Ext Wall Wood-Framed and Other, ! Name
  ,                                       ! Surface Rendering Name
  {8d011eb2-a6bb-4d75-9f5e-96bd30f192dd}, ! Layer 1
  {7567beb1-fbd6-4f3e-9cbd-d5462f2cd6fe}, ! Layer 2
  {d64ff3a5-f3fb-4ffb-8359-df84dd294278}; ! Layer 3

OS:Material,
  {8d011eb2-a6bb-4d75-9f5e-96bd30f192dd}, ! Handle
  Wood Siding,                            ! Name
  MediumSmooth,                           ! Roughness
  0.01,                                   ! Thickness {m}
  0.11,                                   ! Conductivity {W/m-K}
  544.62,                                 ! Density {kg/m3}
  1210,                                   ! Specific Heat {J/kg-K}
  0.9,                                    ! Thermal Absorptance
  0.78,                                   ! Solar Absorptance
  0.78;                                   ! Visible Absorptance

OS:Material,
  {7567beb1-fbd6-4f3e-9cbd-d5462f2cd6fe}, ! Handle
  Wall Insulation [2],                    ! Name
  MediumRough,                            ! Roughness
  0.0746874,                              ! Thickness {m}
  0.045,                                  ! Conductivity {W/m-K}
  265,                                    ! Density {kg/m3}
  836.8,                                  ! Specific Heat {J/kg-K}
  0.9,                                    ! Thermal Absorptance
  0.7,                                    ! Solar Absorptance
  0.7;                                    ! Visible Absorptance

OS:Material,
  {d64ff3a5-f3fb-4ffb-8359-df84dd294278}, ! Handle
  1/2IN Gypsum,                           ! Name
  Smooth,                                 ! Roughness
  0.01271,                                ! Thickness {m}
  0.16,                                   ! Conductivity {W/m-K}
  784.9,                                  ! Density {kg/m3}
  830,                                    ! Specific Heat {J/kg-K}
  0.9,                                    ! Thermal Absorptance
  0.92,                                   ! Solar Absorptance
  0.92;                                   ! Visible Absorptance

OS:ComponentCost:LineItem,
  {a281e87b-2b04-4e20-9a64-764552d62468}, ! Handle
  90.1-1999 Nonres B11 Ext Wall Wood-Framed and Other, ! Name
  ,                                       ! Type
  Construction,                           ! Line Item Type
  90.1-1999 Nonres B11 Ext Wall Wood-Framed and Other, ! Item Name
  ,                                       ! Object End Use Key
  ,                                       ! Quantity {dimensionless}
  73.056,                                 ! Material Cost {$}
  CostPerArea;                            ! Material Cost Units

