
OS:Version,
  {424ce6f9-18ff-4007-a739-343b7b5318d5}, ! Handle
  0.9.3;                                  ! Version Identifier

OS:Construction,
  {6ebc9046-b4fe-428f-a601-9b429c63ab3c}, ! Handle
  90.1-1999 Nonres B11 Ext Wall Wood-Framed and Other, ! Name
  ,                                       ! Surface Rendering Name
  {a3ab3280-5253-4524-96b2-06c64111e587}, ! Layer 1
  {9902145f-5bcf-4f14-b62e-7fb95bd3d400}, ! Layer 2
  {385a26b4-6e50-4379-abb4-001c3200e801}; ! Layer 3

OS:Material,
  {a3ab3280-5253-4524-96b2-06c64111e587}, ! Handle
  Wood Siding,                            ! Name
  MediumSmooth,                           ! Roughness
  0.01,                                   ! Thickness {m}
  0.11,                                   ! Conductivity {W/m-K}
  544.62,                                 ! Density {kg/m3}
  1210,                                   ! Specific Heat {J/kg-K}
  0.9,                                    ! Thermal Absorptance
  0.78,                                   ! Solar Absorptance
  0.78;                                   ! Visible Absorptance

OS:Material,
  {9902145f-5bcf-4f14-b62e-7fb95bd3d400}, ! Handle
  Wall Insulation [2],                    ! Name
  MediumRough,                            ! Roughness
  0.0746874,                              ! Thickness {m}
  0.045,                                  ! Conductivity {W/m-K}
  265,                                    ! Density {kg/m3}
  836.8,                                  ! Specific Heat {J/kg-K}
  0.9,                                    ! Thermal Absorptance
  0.7,                                    ! Solar Absorptance
  0.7;                                    ! Visible Absorptance

OS:Material,
  {385a26b4-6e50-4379-abb4-001c3200e801}, ! Handle
  1/2IN Gypsum,                           ! Name
  Smooth,                                 ! Roughness
  0.01271,                                ! Thickness {m}
  0.16,                                   ! Conductivity {W/m-K}
  784.9,                                  ! Density {kg/m3}
  830,                                    ! Specific Heat {J/kg-K}
  0.9,                                    ! Thermal Absorptance
  0.92,                                   ! Solar Absorptance
  0.92;                                   ! Visible Absorptance

OS:ComponentCost:LineItem,
  {bbf20c1b-33c0-41ab-aaee-b64818b8a88d}, ! Handle
  90.1-1999 Nonres B11 Ext Wall Wood-Framed and Other, ! Name
  ,                                       ! Type
  Construction,                           ! Line Item Type
  90.1-1999 Nonres B11 Ext Wall Wood-Framed and Other, ! Item Name
  ,                                       ! Object End Use Key
  ,                                       ! Quantity {dimensionless}
  73.056,                                 ! Material Cost {$}
  CostPerArea;                            ! Material Cost Units

OS:ComponentData,
  {60b51244-b707-4657-9e80-1b85bf4111c2}, ! Handle
  Component Data 1,                       ! Name
  {b073b2b1-b9c0-43c7-9315-7b6b423573c8}, ! UUID
  {8c764f34-e7ff-4772-8680-547a35777991}, ! Version UUID
  1363981087,                             ! Creation Timestamp
  1363981087,                             ! Version Timestamp
  {6ebc9046-b4fe-428f-a601-9b429c63ab3c}, ! Name of Object 1
  {a3ab3280-5253-4524-96b2-06c64111e587}, ! Name of Object 2
  {9902145f-5bcf-4f14-b62e-7fb95bd3d400}, ! Name of Object 3
  {385a26b4-6e50-4379-abb4-001c3200e801}, ! Name of Object 4
  {bbf20c1b-33c0-41ab-aaee-b64818b8a88d}; ! Name of Object 5

