
OS:Version,
  {b1b58436-4c4b-4f72-8793-6d8f0a4455fb}, ! Handle
  0.9.3;                                  ! Version Identifier

OS:Construction,
  {eea4200c-5931-4758-ab31-9ed839fb906c}, ! Handle
  189.1-2009 Nonres 4B Attic Floor,       ! Name
  ,                                       ! Surface Rendering Name
  {09639720-f7ac-4ed9-a58a-408a2694aaad}, ! Layer 1
  {6b776eb9-99db-4145-8ee4-ae59a56427fb}, ! Layer 2
  {90961298-b268-4c9d-9b24-29ad0d4a17af}; ! Layer 3

OS:Material,
  {09639720-f7ac-4ed9-a58a-408a2694aaad}, ! Handle
  1/2IN Gypsum Top,                       ! Name
  Smooth,                                 ! Roughness
  0.01271,                                ! Thickness {m}
  0.16,                                   ! Conductivity {W/m-K}
  784.9,                                  ! Density {kg/m3}
  830,                                    ! Specific Heat {J/kg-K}
  0.9,                                    ! Thermal Absorptance
  0.92,                                   ! Solar Absorptance
  0.92;                                   ! Visible Absorptance

OS:Material,
  {6b776eb9-99db-4145-8ee4-ae59a56427fb}, ! Handle
  AtticFloor Insulation [4],              ! Name
  MediumRough,                            ! Roughness
  0.392234,                               ! Thickness {m}
  0.049,                                  ! Conductivity {W/m-K}
  265,                                    ! Density {kg/m3}
  836.8,                                  ! Specific Heat {J/kg-K}
  0.9,                                    ! Thermal Absorptance
  0.7,                                    ! Solar Absorptance
  0.7;                                    ! Visible Absorptance

OS:Material,
  {90961298-b268-4c9d-9b24-29ad0d4a17af}, ! Handle
  1/2IN Gypsum Bottom,                    ! Name
  Smooth,                                 ! Roughness
  0.01271,                                ! Thickness {m}
  0.16,                                   ! Conductivity {W/m-K}
  784.9,                                  ! Density {kg/m3}
  830,                                    ! Specific Heat {J/kg-K}
  0.9,                                    ! Thermal Absorptance
  0.92,                                   ! Solar Absorptance
  0.92;                                   ! Visible Absorptance

OS:ComponentCost:LineItem,
  {2ccde9a4-db7a-4b2a-940a-3ec48739b84a}, ! Handle
  189.1-2009 Nonres 4B Attic Floor,       ! Name
  ,                                       ! Type
  Construction,                           ! Line Item Type
  189.1-2009 Nonres 4B Attic Floor,       ! Item Name
  ,                                       ! Object End Use Key
  ,                                       ! Quantity {dimensionless}
  37.058,                                 ! Material Cost {$}
  CostPerArea;                            ! Material Cost Units

