
OS:Version,
  {29495496-bd0f-4ab1-872d-96e09f80d543}, !- Handle
  1.1.0;                                  !- Version Identifier

OS:Construction,
  {e3da7ea7-117e-40f1-a2c7-78b3582380b6}, !- Handle
  Dbl Clr Low Iron 5mm/13mm Air,          !- Name
  ,                                       !- Surface Rendering Name
  {c8a14e30-9291-4333-8f7d-cd2ac105edb2}, !- Layer 1
  {526b8d9e-7d52-4294-8014-efe104033714}, !- Layer 2
  {c8a14e30-9291-4333-8f7d-cd2ac105edb2}; !- Layer 3

OS:WindowMaterial:Glazing,
  {c8a14e30-9291-4333-8f7d-cd2ac105edb2}, !- Handle
  LOW IRON 5MM,                           !- Name
  SpectralAverage,                        !- Optical Data Type
  ,                                       !- Window Glass Spectral Data Set Name
  0.005,                                  !- Thickness {m}
  0.889,                                  !- Solar Transmittance at Normal Incidence
  0.079,                                  !- Front Side Solar Reflectance at Normal Incidence
  0.079,                                  !- Back Side Solar Reflectance at Normal Incidence
  0.91,                                   !- Visible Transmittance at Normal Incidence
  0.082,                                  !- Front Side Visible Reflectance at Normal Incidence
  0.082,                                  !- Back Side Visible Reflectance at Normal Incidence
  0,                                      !- Infrared Transmittance at Normal Incidence
  0.84,                                   !- Front Side Infrared Hemispherical Emissivity
  0.84,                                   !- Back Side Infrared Hemispherical Emissivity
  0.9;                                    !- Conductivity {W/m-K}

OS:WindowMaterial:Gas,
  {526b8d9e-7d52-4294-8014-efe104033714}, !- Handle
  AIR 13MM,                               !- Name
  Air,                                    !- Gas Type
  0.0127;                                 !- Thickness {m}

