
OS:Version,
  {7e8ccc01-15ff-4123-99ac-45fe036ad310}, ! Handle
  0.9.3;                                  ! Version Identifier

OS:Material,
  {5ebff827-29f7-4f61-a358-7c4b68dca602}, ! Handle
  MAT-CC05 4 HW CONCRETE,                 ! Name
  Rough,                                  ! Roughness
  0.1016,                                 ! Thickness {m}
  1.311,                                  ! Conductivity {W/m-K}
  2240,                                   ! Density {kg/m3}
  836.8,                                  ! Specific Heat {J/kg-K}
  0.9,                                    ! Thermal Absorptance
  0.7,                                    ! Solar Absorptance
  0.7;                                    ! Visible Absorptance

OS:Construction,
  {e013f0d5-fcb6-4768-ac72-6ff411bc9685}, ! Handle
  90.1-2004 Nonres 1A Ext Slab Unheated - 4in Slab with Carpet, ! Name
  ,                                       ! Surface Rendering Name
  {5ebff827-29f7-4f61-a358-7c4b68dca602}, ! Layer 1
  {970034cd-eee9-46b5-8340-ff19206c3630}; ! Layer 2

OS:Material:NoMass,
  {970034cd-eee9-46b5-8340-ff19206c3630}, ! Handle
  CP02 CARPET PAD,                        ! Name
  VeryRough,                              ! Roughness
  0.21648,                                ! Thermal Resistance {m2-K/W}
  0.9,                                    ! Thermal Absorptance
  0.7,                                    ! Solar Absorptance
  0.8;                                    ! Visible Absorptance

OS:ComponentCost:LineItem,
  {6bfb505e-4798-483a-94e5-bd74966c175e}, ! Handle
  90.1-2004 Nonres 1A Ext Slab Unheated - 4in Slab with Carpet, ! Name
  ,                                       ! Type
  Construction,                           ! Line Item Type
  90.1-2004 Nonres 1A Ext Slab Unheated - 4in Slab with Carpet, ! Item Name
  ,                                       ! Object End Use Key
  ,                                       ! Quantity {dimensionless}
  45.52,                                  ! Material Cost {$}
  CostPerArea;                            ! Material Cost Units

