
OS:Version,
  {7107c75f-f858-4383-b15c-52fd9fe342af}, !- Handle
  1.1.0;                                  !- Version Identifier

OS:Construction,
  {551d7356-e783-4662-8ec0-d4d3b9e8b4ec}, !- Handle
  Trp LoE Film (44) Bronze 6mm/13mm Air,  !- Name
  ,                                       !- Surface Rendering Name
  {755addbb-70ae-4d98-84a2-e143557e23c8}, !- Layer 1
  {5b9c32cb-819b-4907-b62a-8cabb60cea42}, !- Layer 2
  {bec118fa-06c1-4264-8aa0-4bfadd942312}, !- Layer 3
  {5b9c32cb-819b-4907-b62a-8cabb60cea42}, !- Layer 4
  {6a79701e-c0ed-44b7-ae36-3f29bb059c2c}; !- Layer 5

OS:WindowMaterial:Glazing,
  {755addbb-70ae-4d98-84a2-e143557e23c8}, !- Handle
  BRONZE 6MM,                             !- Name
  SpectralAverage,                        !- Optical Data Type
  ,                                       !- Window Glass Spectral Data Set Name
  0.006,                                  !- Thickness {m}
  0.482,                                  !- Solar Transmittance at Normal Incidence
  0.054,                                  !- Front Side Solar Reflectance at Normal Incidence
  0.054,                                  !- Back Side Solar Reflectance at Normal Incidence
  0.534,                                  !- Visible Transmittance at Normal Incidence
  0.057,                                  !- Front Side Visible Reflectance at Normal Incidence
  0.057,                                  !- Back Side Visible Reflectance at Normal Incidence
  0,                                      !- Infrared Transmittance at Normal Incidence
  0.84,                                   !- Front Side Infrared Hemispherical Emissivity
  0.84,                                   !- Back Side Infrared Hemispherical Emissivity
  0.9;                                    !- Conductivity {W/m-K}

OS:WindowMaterial:Gas,
  {5b9c32cb-819b-4907-b62a-8cabb60cea42}, !- Handle
  AIR 13MM,                               !- Name
  Air,                                    !- Gas Type
  0.0127;                                 !- Thickness {m}

OS:WindowMaterial:Glazing,
  {bec118fa-06c1-4264-8aa0-4bfadd942312}, !- Handle
  COATED POLY-44,                         !- Name
  SpectralAverage,                        !- Optical Data Type
  ,                                       !- Window Glass Spectral Data Set Name
  0.00051,                                !- Thickness {m}
  0.245,                                  !- Solar Transmittance at Normal Incidence
  0.626,                                  !- Front Side Solar Reflectance at Normal Incidence
  0.641,                                  !- Back Side Solar Reflectance at Normal Incidence
  0.439,                                  !- Visible Transmittance at Normal Incidence
  0.397,                                  !- Front Side Visible Reflectance at Normal Incidence
  0.453,                                  !- Back Side Visible Reflectance at Normal Incidence
  0,                                      !- Infrared Transmittance at Normal Incidence
  0.037,                                  !- Front Side Infrared Hemispherical Emissivity
  0.72,                                   !- Back Side Infrared Hemispherical Emissivity
  0.14;                                   !- Conductivity {W/m-K}

OS:WindowMaterial:Glazing,
  {6a79701e-c0ed-44b7-ae36-3f29bb059c2c}, !- Handle
  CLEAR 6MM,                              !- Name
  SpectralAverage,                        !- Optical Data Type
  ,                                       !- Window Glass Spectral Data Set Name
  0.006,                                  !- Thickness {m}
  0.775,                                  !- Solar Transmittance at Normal Incidence
  0.071,                                  !- Front Side Solar Reflectance at Normal Incidence
  0.071,                                  !- Back Side Solar Reflectance at Normal Incidence
  0.881,                                  !- Visible Transmittance at Normal Incidence
  0.08,                                   !- Front Side Visible Reflectance at Normal Incidence
  0.08,                                   !- Back Side Visible Reflectance at Normal Incidence
  0,                                      !- Infrared Transmittance at Normal Incidence
  0.84,                                   !- Front Side Infrared Hemispherical Emissivity
  0.84,                                   !- Back Side Infrared Hemispherical Emissivity
  0.9;                                    !- Conductivity {W/m-K}

OS:ComponentData,
  {a3d75189-dbc8-473b-8ee7-f8c3c8d91981}, !- Handle
  Component Data 1,                       !- Name
  {5f43c180-af33-42c5-bc2f-23f8a61d324f}, !- UUID
  {5c687837-a627-4a12-8b0b-f6541143ee08}, !- Version UUID
  1384380193,                             !- Creation Timestamp
  1384380193,                             !- Version Timestamp
  {551d7356-e783-4662-8ec0-d4d3b9e8b4ec}, !- Name of Object 1
  {755addbb-70ae-4d98-84a2-e143557e23c8}, !- Name of Object 2
  {5b9c32cb-819b-4907-b62a-8cabb60cea42}, !- Name of Object 3
  {bec118fa-06c1-4264-8aa0-4bfadd942312}, !- Name of Object 4
  {6a79701e-c0ed-44b7-ae36-3f29bb059c2c}; !- Name of Object 5

