
OS:Version,
  {494f4e66-5ff0-4b9b-a9a1-242777d0eeb3}, !- Handle
  1.1.0;                                  !- Version Identifier

OS:Construction,
  {530d36df-cd16-4ddd-9b2d-721e2782f37b}, !- Handle
  Trp LoE Film (44) Bronze 6mm/13mm Air,  !- Name
  ,                                       !- Surface Rendering Name
  {8914d139-68ec-44c5-8951-96f4a76c1056}, !- Layer 1
  {45c212c7-6d1c-488d-a951-c0c8e7bb3337}, !- Layer 2
  {894c6c2a-a97b-46dd-ad6d-1895a02cc1c3}, !- Layer 3
  {45c212c7-6d1c-488d-a951-c0c8e7bb3337}, !- Layer 4
  {ff73b48a-9207-48a8-abb7-b8940936b986}; !- Layer 5

OS:WindowMaterial:Glazing,
  {8914d139-68ec-44c5-8951-96f4a76c1056}, !- Handle
  BRONZE 6MM,                             !- Name
  SpectralAverage,                        !- Optical Data Type
  ,                                       !- Window Glass Spectral Data Set Name
  0.006,                                  !- Thickness {m}
  0.482,                                  !- Solar Transmittance at Normal Incidence
  0.054,                                  !- Front Side Solar Reflectance at Normal Incidence
  0.054,                                  !- Back Side Solar Reflectance at Normal Incidence
  0.534,                                  !- Visible Transmittance at Normal Incidence
  0.057,                                  !- Front Side Visible Reflectance at Normal Incidence
  0.057,                                  !- Back Side Visible Reflectance at Normal Incidence
  0,                                      !- Infrared Transmittance at Normal Incidence
  0.84,                                   !- Front Side Infrared Hemispherical Emissivity
  0.84,                                   !- Back Side Infrared Hemispherical Emissivity
  0.9;                                    !- Conductivity {W/m-K}

OS:WindowMaterial:Gas,
  {45c212c7-6d1c-488d-a951-c0c8e7bb3337}, !- Handle
  AIR 13MM,                               !- Name
  Air,                                    !- Gas Type
  0.0127;                                 !- Thickness {m}

OS:WindowMaterial:Glazing,
  {894c6c2a-a97b-46dd-ad6d-1895a02cc1c3}, !- Handle
  COATED POLY-44,                         !- Name
  SpectralAverage,                        !- Optical Data Type
  ,                                       !- Window Glass Spectral Data Set Name
  0.00051,                                !- Thickness {m}
  0.245,                                  !- Solar Transmittance at Normal Incidence
  0.626,                                  !- Front Side Solar Reflectance at Normal Incidence
  0.641,                                  !- Back Side Solar Reflectance at Normal Incidence
  0.439,                                  !- Visible Transmittance at Normal Incidence
  0.397,                                  !- Front Side Visible Reflectance at Normal Incidence
  0.453,                                  !- Back Side Visible Reflectance at Normal Incidence
  0,                                      !- Infrared Transmittance at Normal Incidence
  0.037,                                  !- Front Side Infrared Hemispherical Emissivity
  0.72,                                   !- Back Side Infrared Hemispherical Emissivity
  0.14;                                   !- Conductivity {W/m-K}

OS:WindowMaterial:Glazing,
  {ff73b48a-9207-48a8-abb7-b8940936b986}, !- Handle
  CLEAR 6MM,                              !- Name
  SpectralAverage,                        !- Optical Data Type
  ,                                       !- Window Glass Spectral Data Set Name
  0.006,                                  !- Thickness {m}
  0.775,                                  !- Solar Transmittance at Normal Incidence
  0.071,                                  !- Front Side Solar Reflectance at Normal Incidence
  0.071,                                  !- Back Side Solar Reflectance at Normal Incidence
  0.881,                                  !- Visible Transmittance at Normal Incidence
  0.08,                                   !- Front Side Visible Reflectance at Normal Incidence
  0.08,                                   !- Back Side Visible Reflectance at Normal Incidence
  0,                                      !- Infrared Transmittance at Normal Incidence
  0.84,                                   !- Front Side Infrared Hemispherical Emissivity
  0.84,                                   !- Back Side Infrared Hemispherical Emissivity
  0.9;                                    !- Conductivity {W/m-K}

