
OS:Version,
  {4a4af68c-5216-4282-9bc6-d6145ddf203b}, ! Handle
  0.9.3;                                  ! Version Identifier

OS:Material,
  {45b68cd9-ce84-4a98-8e26-520a86a817b0}, ! Handle
  Roof Insulation [1],                    ! Name
  MediumRough,                            ! Roughness
  0.123533,                               ! Thickness {m}
  0.049,                                  ! Conductivity {W/m-K}
  265,                                    ! Density {kg/m3}
  836.8,                                  ! Specific Heat {J/kg-K}
  0.9,                                    ! Thermal Absorptance
  0.7,                                    ! Solar Absorptance
  0.7;                                    ! Visible Absorptance

OS:Construction,
  {09308d53-0e1b-4afa-a7b5-5031b88850f3}, ! Handle
  90.1-1999 Nonres B10 Roof Metal Building, ! Name
  ,                                       ! Surface Rendering Name
  {01f97649-09a1-4f98-8e16-aa210623221a}, ! Layer 1
  {45b68cd9-ce84-4a98-8e26-520a86a817b0}; ! Layer 2

OS:Material,
  {01f97649-09a1-4f98-8e16-aa210623221a}, ! Handle
  Metal Roofing,                          ! Name
  MediumSmooth,                           ! Roughness
  0.001524,                               ! Thickness {m}
  45.006,                                 ! Conductivity {W/m-K}
  7680,                                   ! Density {kg/m3}
  418.4,                                  ! Specific Heat {J/kg-K}
  0.9,                                    ! Thermal Absorptance
  0.7,                                    ! Solar Absorptance
  0.3;                                    ! Visible Absorptance

OS:ComponentCost:LineItem,
  {a949aa95-7f5e-4005-aef3-3d823d457d2b}, ! Handle
  90.1-1999 Nonres B10 Roof Metal Building, ! Name
  ,                                       ! Type
  Construction,                           ! Line Item Type
  90.1-1999 Nonres B10 Roof Metal Building, ! Item Name
  ,                                       ! Object End Use Key
  ,                                       ! Quantity {dimensionless}
  38.206,                                 ! Material Cost {$}
  CostPerArea;                            ! Material Cost Units

