
OS:Version,
  {9cdebd54-2ada-4a96-812f-f9899c47d6d5}, ! Handle
  0.9.3;                                  ! Version Identifier

OS:Construction,
  {69c1e912-4fc8-4f02-8d70-e4e9defbbb2f}, ! Handle
  90.1-2004 Res 1A Window Fixed,          ! Name
  ,                                       ! Surface Rendering Name
  {253908b4-9bf1-456b-9f44-a8cecc9c3a12}; ! Layer 1

OS:WindowMaterial:Glazing,
  {253908b4-9bf1-456b-9f44-a8cecc9c3a12}, ! Handle
  Theoretical Glass [127],                ! Name
  SpectralAverage,                        ! Optical Data Type
  ,                                       ! Window Glass Spectral Data Set Name
  0.003,                                  ! Thickness {m}
  0.31664,                                ! Solar Transmittance at Normal Incidence
  0.63336,                                ! Front Side Solar Reflectance at Normal Incidence
  0.63336,                                ! Back Side Solar Reflectance at Normal Incidence
  0.330719,                               ! Visible Transmittance at Normal Incidence
  0.619281,                               ! Front Side Visible Reflectance at Normal Incidence
  0.619281,                               ! Back Side Visible Reflectance at Normal Incidence
  0,                                      ! Infrared Transmittance at Normal Incidence
  0.999,                                  ! Front Side Infrared Hemispherical Emissivity
  0.999,                                  ! Back Side Infrared Hemispherical Emissivity
  3.36874;                                ! Conductivity {W/m-K}

OS:ComponentCost:LineItem,
  {a41c477b-9edb-49e9-ac24-4c8976ff5ed7}, ! Handle
  90.1-2004 Res 1A Window Fixed,          ! Name
  ,                                       ! Type
  Construction,                           ! Line Item Type
  90.1-2004 Res 1A Window Fixed,          ! Item Name
  ,                                       ! Object End Use Key
  ,                                       ! Quantity {dimensionless}
  473.607,                                ! Material Cost {$}
  CostPerArea;                            ! Material Cost Units

OS:ComponentData,
  {773f86ae-92fa-47fa-a3b2-63533d8c7603}, ! Handle
  Component Data 1,                       ! Name
  {5c08becc-3599-48e5-b6c5-7de3640f66f7}, ! UUID
  {1ebc43da-523f-4cbc-bb35-dbafd35fc999}, ! Version UUID
  1363981715,                             ! Creation Timestamp
  1363981715,                             ! Version Timestamp
  {69c1e912-4fc8-4f02-8d70-e4e9defbbb2f}, ! Name of Object 1
  {253908b4-9bf1-456b-9f44-a8cecc9c3a12}, ! Name of Object 2
  {a41c477b-9edb-49e9-ac24-4c8976ff5ed7}; ! Name of Object 3

