
OS:Version,
  {055d8b99-4ae7-42c0-b947-a41f8a7c0bbe}, ! Handle
  0.9.3;                                  ! Version Identifier

OS:WindowMaterial:Glazing,
  {5dfe60dc-ebd1-4c93-9336-0315e0c07ae8}, ! Handle
  Theoretical Glass [674],                ! Name
  SpectralAverage,                        ! Optical Data Type
  ,                                       ! Window Glass Spectral Data Set Name
  0.003,                                  ! Thickness {m}
  0.676633,                               ! Solar Transmittance at Normal Incidence
  0.273367,                               ! Front Side Solar Reflectance at Normal Incidence
  0.273367,                               ! Back Side Solar Reflectance at Normal Incidence
  0.689609,                               ! Visible Transmittance at Normal Incidence
  0.260391,                               ! Front Side Visible Reflectance at Normal Incidence
  0.260391,                               ! Back Side Visible Reflectance at Normal Incidence
  0,                                      ! Infrared Transmittance at Normal Incidence
  0.91,                                   ! Front Side Infrared Hemispherical Emissivity
  0.91,                                   ! Back Side Infrared Hemispherical Emissivity
  0.387053;                               ! Conductivity {W/m-K}

OS:Construction,
  {886d1799-9977-48c6-a08b-bcc3bf691098}, ! Handle
  Title 24-2008 Nonres 9 Skylight Plastic Skylight with Curb, ! Name
  ,                                       ! Surface Rendering Name
  {5dfe60dc-ebd1-4c93-9336-0315e0c07ae8}; ! Layer 1

OS:ComponentCost:LineItem,
  {ff567946-fdb5-47ba-8100-5e53084eeb4f}, ! Handle
  Title 24-2008 Nonres 9 Skylight Plastic Skylight with Curb, ! Name
  ,                                       ! Type
  Construction,                           ! Line Item Type
  Title 24-2008 Nonres 9 Skylight Plastic Skylight with Curb, ! Item Name
  ,                                       ! Object End Use Key
  ,                                       ! Quantity {dimensionless}
  480.601,                                ! Material Cost {$}
  CostPerArea;                            ! Material Cost Units

