
OS:Version,
  {ea510bdd-0ab6-4b92-9c11-ee35487e66a6}, ! Handle
  0.9.3;                                  ! Version Identifier

OS:Material:NoMass,
  {a21885aa-5faf-4024-bc5e-cd6e14d6e7e9}, ! Handle
  MAT-SHEATH,                             ! Name
  Rough,                                  ! Roughness
  0.36256,                                ! Thermal Resistance {m2-K/W}
  0.9,                                    ! Thermal Absorptance
  0.7,                                    ! Solar Absorptance
  0.7;                                    ! Visible Absorptance

OS:ComponentCost:LineItem,
  {bb454db9-73d3-448a-ad9e-6d5180bb17cf}, ! Handle
  90.1-1999 Nonres B21 Ext Wall Steel-Framed, ! Name
  ,                                       ! Type
  Construction,                           ! Line Item Type
  90.1-1999 Nonres B21 Ext Wall Steel-Framed, ! Item Name
  ,                                       ! Object End Use Key
  ,                                       ! Quantity {dimensionless}
  94.657,                                 ! Material Cost {$}
  CostPerArea;                            ! Material Cost Units

OS:Construction,
  {a0d0c386-cb9f-4a20-9db7-0f267f333698}, ! Handle
  90.1-1999 Nonres B21 Ext Wall Steel-Framed, ! Name
  ,                                       ! Surface Rendering Name
  {a21885aa-5faf-4024-bc5e-cd6e14d6e7e9}, ! Layer 1
  {5a5f0d44-c36a-4860-8490-38d04ab97ee0}, ! Layer 2
  {0f5a2fe1-04c1-4dd0-80e5-95e3ad95ca35}; ! Layer 3

OS:Material,
  {5a5f0d44-c36a-4860-8490-38d04ab97ee0}, ! Handle
  Wall Insulation [10],                   ! Name
  MediumRough,                            ! Roughness
  0.0971136,                              ! Thickness {m}
  0.045,                                  ! Conductivity {W/m-K}
  265,                                    ! Density {kg/m3}
  836.8,                                  ! Specific Heat {J/kg-K}
  0.9,                                    ! Thermal Absorptance
  0.7,                                    ! Solar Absorptance
  0.7;                                    ! Visible Absorptance

OS:Material,
  {0f5a2fe1-04c1-4dd0-80e5-95e3ad95ca35}, ! Handle
  1/2IN Gypsum,                           ! Name
  Smooth,                                 ! Roughness
  0.01271,                                ! Thickness {m}
  0.16,                                   ! Conductivity {W/m-K}
  784.9,                                  ! Density {kg/m3}
  830,                                    ! Specific Heat {J/kg-K}
  0.9,                                    ! Thermal Absorptance
  0.92,                                   ! Solar Absorptance
  0.92;                                   ! Visible Absorptance

