
OS:Version,
  {0d80756f-a499-485f-a6e2-a9babb714fb5}, ! Handle
  0.9.3;                                  ! Version Identifier

OS:Material:NoMass,
  {ff4bdaf9-cf35-4c45-ac8f-61925ba6832f}, ! Handle
  CP02 CARPET PAD,                        ! Name
  VeryRough,                              ! Roughness
  0.21648,                                ! Thermal Resistance {m2-K/W}
  0.9,                                    ! Thermal Absorptance
  0.7,                                    ! Solar Absorptance
  0.8;                                    ! Visible Absorptance

OS:Construction,
  {e69669e5-cbb6-4cb2-8a3f-cf1a9114141b}, ! Handle
  Title 24-2008 Nonres 12 Exposed Floor Mass, ! Name
  ,                                       ! Surface Rendering Name
  {63915f10-c53e-4fde-a337-c197385c71c5}, ! Layer 1
  {1ca4133f-e95a-413f-982d-12e1a152e80a}, ! Layer 2
  {ff4bdaf9-cf35-4c45-ac8f-61925ba6832f}; ! Layer 3

OS:Material,
  {63915f10-c53e-4fde-a337-c197385c71c5}, ! Handle
  Floor Insulation [55],                  ! Name
  MediumRough,                            ! Roughness
  0.058588,                               ! Thickness {m}
  0.045,                                  ! Conductivity {W/m-K}
  265,                                    ! Density {kg/m3}
  836.8,                                  ! Specific Heat {J/kg-K}
  0.9,                                    ! Thermal Absorptance
  0.7,                                    ! Solar Absorptance
  0.7;                                    ! Visible Absorptance

OS:Material,
  {1ca4133f-e95a-413f-982d-12e1a152e80a}, ! Handle
  MAT-CC05 8 HW CONCRETE,                 ! Name
  Rough,                                  ! Roughness
  0.20321,                                ! Thickness {m}
  1.311,                                  ! Conductivity {W/m-K}
  2240,                                   ! Density {kg/m3}
  836.8,                                  ! Specific Heat {J/kg-K}
  0.9,                                    ! Thermal Absorptance
  0.7,                                    ! Solar Absorptance
  0.7;                                    ! Visible Absorptance

OS:ComponentCost:LineItem,
  {2e0a2ad3-a1d8-4a41-bcb6-098236fef293}, ! Handle
  Title 24-2008 Nonres 12 Exposed Floor Mass, ! Name
  ,                                       ! Type
  Construction,                           ! Line Item Type
  Title 24-2008 Nonres 12 Exposed Floor Mass, ! Item Name
  ,                                       ! Object End Use Key
  ,                                       ! Quantity {dimensionless}
  48.922,                                 ! Material Cost {$}
  CostPerArea;                            ! Material Cost Units

