
OS:Version,
  {797dbb71-555b-4a71-ad45-dc8ece953284}, ! Handle
  0.9.3;                                  ! Version Identifier

OS:Material,
  {d8ab3f97-6384-44e5-b26d-617642f008c2}, ! Handle
  1IN Wood Decking,                       ! Name
  MediumSmooth,                           ! Roughness
  0.0254,                                 ! Thickness {m}
  0.1211,                                 ! Conductivity {W/m-K}
  593,                                    ! Density {kg/m3}
  2510,                                   ! Specific Heat {J/kg-K}
  0.9,                                    ! Thermal Absorptance
  0.78,                                   ! Solar Absorptance
  0.78;                                   ! Visible Absorptance

OS:Construction,
  {90a18c2f-13df-4892-8c34-4f769d7799ed}, ! Handle
  Title 24-2008 Nonres 12 Roof Attic and Other, ! Name
  ,                                       ! Surface Rendering Name
  {a0884e2b-5730-4cf5-a7b7-dba0c8fa5e3e}, ! Layer 1
  {d8ab3f97-6384-44e5-b26d-617642f008c2}, ! Layer 2
  {9713ffc3-3224-4111-a683-0e1154a95412}, ! Layer 3
  {819fdfcb-d642-4b59-b7c4-b28212c4ac98}; ! Layer 4

OS:Material,
  {a0884e2b-5730-4cf5-a7b7-dba0c8fa5e3e}, ! Handle
  Wood Shingles [1],                      ! Name
  VeryRough,                              ! Roughness
  0.0178,                                 ! Thickness {m}
  0.115,                                  ! Conductivity {W/m-K}
  513,                                    ! Density {kg/m3}
  1255,                                   ! Specific Heat {J/kg-K}
  0.9,                                    ! Thermal Absorptance
  0.78,                                   ! Solar Absorptance
  0.85;                                   ! Visible Absorptance

OS:Material,
  {9713ffc3-3224-4111-a683-0e1154a95412}, ! Handle
  Roof Insulation [106],                  ! Name
  MediumRough,                            ! Roughness
  0.190659,                               ! Thickness {m}
  0.049,                                  ! Conductivity {W/m-K}
  265,                                    ! Density {kg/m3}
  836.8,                                  ! Specific Heat {J/kg-K}
  0.9,                                    ! Thermal Absorptance
  0.7,                                    ! Solar Absorptance
  0.7;                                    ! Visible Absorptance

OS:Material,
  {819fdfcb-d642-4b59-b7c4-b28212c4ac98}, ! Handle
  1/2IN Gypsum,                           ! Name
  Smooth,                                 ! Roughness
  0.01271,                                ! Thickness {m}
  0.16,                                   ! Conductivity {W/m-K}
  784.9,                                  ! Density {kg/m3}
  830,                                    ! Specific Heat {J/kg-K}
  0.9,                                    ! Thermal Absorptance
  0.92,                                   ! Solar Absorptance
  0.92;                                   ! Visible Absorptance

OS:ComponentCost:LineItem,
  {3e109189-bd4b-4b4f-a70c-88134a0dfc65}, ! Handle
  Title 24-2008 Nonres 12 Roof Attic and Other, ! Name
  ,                                       ! Type
  Construction,                           ! Line Item Type
  Title 24-2008 Nonres 12 Roof Attic and Other, ! Item Name
  ,                                       ! Object End Use Key
  ,                                       ! Quantity {dimensionless}
  33.009,                                 ! Material Cost {$}
  CostPerArea;                            ! Material Cost Units

