
OS:Version,
  {37d50ace-16ab-416e-b86f-e9e5df06ba23}, ! Handle
  0.9.3;                                  ! Version Identifier

OS:Construction,
  {3f9c9a36-1f45-48c1-8afc-e648c5a990b1}, ! Handle
  Title 24-2008 Nonres 12 Roof Attic and Other, ! Name
  ,                                       ! Surface Rendering Name
  {57253c3b-bee4-4248-97cb-8d0c1b078a06}, ! Layer 1
  {d0151661-8403-49fa-ba72-b81f664469aa}, ! Layer 2
  {4058a1cc-dd7c-4b20-855e-ec2161145679}, ! Layer 3
  {120255e2-79db-4cc6-bf4c-06d6684c0e5d}; ! Layer 4

OS:Material,
  {57253c3b-bee4-4248-97cb-8d0c1b078a06}, ! Handle
  Wood Shingles [1],                      ! Name
  VeryRough,                              ! Roughness
  0.0178,                                 ! Thickness {m}
  0.115,                                  ! Conductivity {W/m-K}
  513,                                    ! Density {kg/m3}
  1255,                                   ! Specific Heat {J/kg-K}
  0.9,                                    ! Thermal Absorptance
  0.78,                                   ! Solar Absorptance
  0.85;                                   ! Visible Absorptance

OS:Material,
  {d0151661-8403-49fa-ba72-b81f664469aa}, ! Handle
  1IN Wood Decking,                       ! Name
  MediumSmooth,                           ! Roughness
  0.0254,                                 ! Thickness {m}
  0.1211,                                 ! Conductivity {W/m-K}
  593,                                    ! Density {kg/m3}
  2510,                                   ! Specific Heat {J/kg-K}
  0.9,                                    ! Thermal Absorptance
  0.78,                                   ! Solar Absorptance
  0.78;                                   ! Visible Absorptance

OS:Material,
  {4058a1cc-dd7c-4b20-855e-ec2161145679}, ! Handle
  Roof Insulation [106],                  ! Name
  MediumRough,                            ! Roughness
  0.190659,                               ! Thickness {m}
  0.049,                                  ! Conductivity {W/m-K}
  265,                                    ! Density {kg/m3}
  836.8,                                  ! Specific Heat {J/kg-K}
  0.9,                                    ! Thermal Absorptance
  0.7,                                    ! Solar Absorptance
  0.7;                                    ! Visible Absorptance

OS:Material,
  {120255e2-79db-4cc6-bf4c-06d6684c0e5d}, ! Handle
  1/2IN Gypsum,                           ! Name
  Smooth,                                 ! Roughness
  0.01271,                                ! Thickness {m}
  0.16,                                   ! Conductivity {W/m-K}
  784.9,                                  ! Density {kg/m3}
  830,                                    ! Specific Heat {J/kg-K}
  0.9,                                    ! Thermal Absorptance
  0.92,                                   ! Solar Absorptance
  0.92;                                   ! Visible Absorptance

OS:ComponentCost:LineItem,
  {e01022c4-8b8d-4850-aec6-d0a3a8871010}, ! Handle
  Title 24-2008 Nonres 12 Roof Attic and Other, ! Name
  ,                                       ! Type
  Construction,                           ! Line Item Type
  Title 24-2008 Nonres 12 Roof Attic and Other, ! Item Name
  ,                                       ! Object End Use Key
  ,                                       ! Quantity {dimensionless}
  33.009,                                 ! Material Cost {$}
  CostPerArea;                            ! Material Cost Units

OS:ComponentData,
  {9c2baaed-4823-4342-957f-c71de948023d}, ! Handle
  Component Data 1,                       ! Name
  {9d0b9f9c-010b-407d-9ba3-acbbdcceec7f}, ! UUID
  {836e3156-4b46-4a7f-ab43-01c33afae882}, ! Version UUID
  1363982077,                             ! Creation Timestamp
  1363982077,                             ! Version Timestamp
  {3f9c9a36-1f45-48c1-8afc-e648c5a990b1}, ! Name of Object 1
  {57253c3b-bee4-4248-97cb-8d0c1b078a06}, ! Name of Object 2
  {d0151661-8403-49fa-ba72-b81f664469aa}, ! Name of Object 3
  {4058a1cc-dd7c-4b20-855e-ec2161145679}, ! Name of Object 4
  {120255e2-79db-4cc6-bf4c-06d6684c0e5d}, ! Name of Object 5
  {e01022c4-8b8d-4850-aec6-d0a3a8871010}; ! Name of Object 6

