
OS:Version,
  {a7ae634d-ca6f-48b1-9088-c36238ab82e4}, ! Handle
  0.9.3;                                  ! Version Identifier

OS:Material,
  {49bb8670-a59c-4354-975b-e0fd8c110ce2}, ! Handle
  Metal Roofing [1],                      ! Name
  MediumSmooth,                           ! Roughness
  0.001524,                               ! Thickness {m}
  45.006,                                 ! Conductivity {W/m-K}
  7680,                                   ! Density {kg/m3}
  418.4,                                  ! Specific Heat {J/kg-K}
  0.9,                                    ! Thermal Absorptance
  0.7,                                    ! Solar Absorptance
  0.85;                                   ! Visible Absorptance

OS:Construction,
  {f87a99e8-a406-4679-bf26-42970fa6a499}, ! Handle
  Title 24-2008 Nonres 7 Roof Metal Building, ! Name
  ,                                       ! Surface Rendering Name
  {49bb8670-a59c-4354-975b-e0fd8c110ce2}, ! Layer 1
  {772b97ec-7e86-4cb0-8f33-5a07a8553ebc}; ! Layer 2

OS:Material,
  {772b97ec-7e86-4cb0-8f33-5a07a8553ebc}, ! Handle
  Roof Insulation [15],                   ! Name
  MediumRough,                            ! Roughness
  0.123565,                               ! Thickness {m}
  0.049,                                  ! Conductivity {W/m-K}
  265,                                    ! Density {kg/m3}
  836.8,                                  ! Specific Heat {J/kg-K}
  0.9,                                    ! Thermal Absorptance
  0.7,                                    ! Solar Absorptance
  0.7;                                    ! Visible Absorptance

OS:ComponentCost:LineItem,
  {41756667-2048-4099-aa21-fd51c8481aba}, ! Handle
  Title 24-2008 Nonres 7 Roof Metal Building, ! Name
  ,                                       ! Type
  Construction,                           ! Line Item Type
  Title 24-2008 Nonres 7 Roof Metal Building, ! Item Name
  ,                                       ! Object End Use Key
  ,                                       ! Quantity {dimensionless}
  38.21,                                  ! Material Cost {$}
  CostPerArea;                            ! Material Cost Units

