
! 
OS:Version,
  {8503bb35-3288-4176-9c41-752f3d976c4b}, !- Handle
  1.13.0;                                 !- Version Identifier


! 
OS:Material,
  {f1981e7f-afb1-451b-8c93-96983c694afb}, !- Handle
  Aislamiento: SATE
WEBER: weber.therm placa XPS 60 (0.060 m)
R: 1.8 m2K/W,                             !- Name
  MediumRough,                                 !- Roughness
  0.06,                                    !- Thickness {m}
  0.034,                                    !- Conductivity {W/m-K}
  30.0,                                    !- Density {kg/m3}
  800.0,                                    !- Specific Heat {J/kg-K}
  0.9,                                    !- Thermal Absorptance
  0.6,                                    !- Solar Absorptance
  0.6;                                    !- Visible Absorptance

