
OS:Version,
  {59ca145e-d7ac-41b6-999f-78c0db73445b}, ! Handle
  0.9.3;                                  ! Version Identifier

OS:ComponentCost:LineItem,
  {11fa7b7f-6e11-4b7a-807e-4d99cc16323b}, ! Handle
  90.1-2001 Res B18 Window Fixed,         ! Name
  ,                                       ! Type
  Construction,                           ! Line Item Type
  90.1-2001 Res B18 Window Fixed,         ! Item Name
  ,                                       ! Object End Use Key
  ,                                       ! Quantity {dimensionless}
  537.952,                                ! Material Cost {$}
  CostPerArea;                            ! Material Cost Units

OS:Construction,
  {d99eb3e7-de8d-46ec-88c1-497a8bac4213}, ! Handle
  90.1-2001 Res B18 Window Fixed,         ! Name
  ,                                       ! Surface Rendering Name
  {5921bac1-6381-4677-a787-bf960515d1a1}; ! Layer 1

OS:WindowMaterial:Glazing,
  {5921bac1-6381-4677-a787-bf960515d1a1}, ! Handle
  Theoretical Glass [94],                 ! Name
  SpectralAverage,                        ! Optical Data Type
  ,                                       ! Window Glass Spectral Data Set Name
  0.003,                                  ! Thickness {m}
  0.469989,                               ! Solar Transmittance at Normal Incidence
  0.480011,                               ! Front Side Solar Reflectance at Normal Incidence
  0.480011,                               ! Back Side Solar Reflectance at Normal Incidence
  0.489393,                               ! Visible Transmittance at Normal Incidence
  0.460607,                               ! Front Side Visible Reflectance at Normal Incidence
  0.460607,                               ! Back Side Visible Reflectance at Normal Incidence
  0,                                      ! Infrared Transmittance at Normal Incidence
  0.9,                                    ! Front Side Infrared Hemispherical Emissivity
  0.9,                                    ! Back Side Infrared Hemispherical Emissivity
  0.0137862;                              ! Conductivity {W/m-K}

