
OS:Version,
  {da0bf005-6b97-4b84-9c47-601b70672e9f}, ! Handle
  0.9.3;                                  ! Version Identifier

OS:Construction,
  {bcef7230-f0f6-4d90-bf55-3bb8778d69e4}, ! Handle
  90.1-2001 Res B22 Ext Slab Unheated - 8in Slab without Carpet, ! Name
  ,                                       ! Surface Rendering Name
  {f79b79ae-726b-4371-9905-e511bf11f540}; ! Layer 1

OS:Material,
  {f79b79ae-726b-4371-9905-e511bf11f540}, ! Handle
  MAT-CC05 8 HW CONCRETE,                 ! Name
  Rough,                                  ! Roughness
  0.20321,                                ! Thickness {m}
  1.311,                                  ! Conductivity {W/m-K}
  2240,                                   ! Density {kg/m3}
  836.8,                                  ! Specific Heat {J/kg-K}
  0.9,                                    ! Thermal Absorptance
  0.7,                                    ! Solar Absorptance
  0.7;                                    ! Visible Absorptance

OS:ComponentCost:LineItem,
  {47087bb4-b97d-4b4e-81c0-f1ec18391b91}, ! Handle
  90.1-2001 Res B22 Ext Slab Unheated - 8in Slab without Carpet, ! Name
  ,                                       ! Type
  Construction,                           ! Line Item Type
  90.1-2001 Res B22 Ext Slab Unheated - 8in Slab without Carpet, ! Item Name
  ,                                       ! Object End Use Key
  ,                                       ! Quantity {dimensionless}
  45.52,                                  ! Material Cost {$}
  CostPerArea;                            ! Material Cost Units

