
OS:Version,
  {6f95d2d7-4078-4ec9-ae3e-785066a3291a}, ! Handle
  0.9.3;                                  ! Version Identifier

OS:Material,
  {ed308625-2c55-4a56-a2ca-f0a8c5a37889}, ! Handle
  MAT-CC05 4 HW CONCRETE,                 ! Name
  Rough,                                  ! Roughness
  0.1016,                                 ! Thickness {m}
  1.311,                                  ! Conductivity {W/m-K}
  2240,                                   ! Density {kg/m3}
  836.8,                                  ! Specific Heat {J/kg-K}
  0.9,                                    ! Thermal Absorptance
  0.7,                                    ! Solar Absorptance
  0.7;                                    ! Visible Absorptance

OS:Material:NoMass,
  {3287b66f-73d3-432f-b9d8-696fc779ecce}, ! Handle
  CP02 CARPET PAD,                        ! Name
  VeryRough,                              ! Roughness
  0.21648,                                ! Thermal Resistance {m2-K/W}
  0.9,                                    ! Thermal Absorptance
  0.7,                                    ! Solar Absorptance
  0.8;                                    ! Visible Absorptance

OS:Construction,
  {b9440600-fc49-4673-8b76-86c340b8294e}, ! Handle
  90.1-1999 Nonres B9 Ext Slab Unheated - 4in Slab with Carpet, ! Name
  ,                                       ! Surface Rendering Name
  {ed308625-2c55-4a56-a2ca-f0a8c5a37889}, ! Layer 1
  {3287b66f-73d3-432f-b9d8-696fc779ecce}; ! Layer 2

OS:ComponentCost:LineItem,
  {d7e4b759-f3a7-4372-b4f9-6df3ce3a1c9a}, ! Handle
  90.1-1999 Nonres B9 Ext Slab Unheated - 4in Slab with Carpet, ! Name
  ,                                       ! Type
  Construction,                           ! Line Item Type
  90.1-1999 Nonres B9 Ext Slab Unheated - 4in Slab with Carpet, ! Item Name
  ,                                       ! Object End Use Key
  ,                                       ! Quantity {dimensionless}
  45.52,                                  ! Material Cost {$}
  CostPerArea;                            ! Material Cost Units

