
OS:Version,
  {55cdbf21-ad81-485f-8616-a1c4774a261e}, ! Handle
  0.9.3;                                  ! Version Identifier

OS:Material,
  {76590f0f-23e3-4947-8a85-2bc0c6778a65}, ! Handle
  1/2IN Gypsum,                           ! Name
  Smooth,                                 ! Roughness
  0.01271,                                ! Thickness {m}
  0.16,                                   ! Conductivity {W/m-K}
  784.9,                                  ! Density {kg/m3}
  830,                                    ! Specific Heat {J/kg-K}
  0.9,                                    ! Thermal Absorptance
  0.92,                                   ! Solar Absorptance
  0.92;                                   ! Visible Absorptance

OS:Material,
  {d85b08a5-6124-4b90-b445-dae2a0ae655e}, ! Handle
  Wall Insulation [38],                   ! Name
  MediumRough,                            ! Roughness
  0.139618,                               ! Thickness {m}
  0.045,                                  ! Conductivity {W/m-K}
  265,                                    ! Density {kg/m3}
  836.8,                                  ! Specific Heat {J/kg-K}
  0.9,                                    ! Thermal Absorptance
  0.7,                                    ! Solar Absorptance
  0.7;                                    ! Visible Absorptance

OS:Material,
  {c34f3ad0-47c6-494a-a8cc-959ad6121142}, ! Handle
  Metal Siding,                           ! Name
  Smooth,                                 ! Roughness
  0.0015,                                 ! Thickness {m}
  44.96,                                  ! Conductivity {W/m-K}
  7688.86,                                ! Density {kg/m3}
  410,                                    ! Specific Heat {J/kg-K}
  0.9,                                    ! Thermal Absorptance
  0.2,                                    ! Solar Absorptance
  0.2;                                    ! Visible Absorptance

OS:ComponentCost:LineItem,
  {c0e1a3f9-1f80-4e52-8f7a-533aa5f5673b}, ! Handle
  189.1-2009 Res 2A Ext Wall Metal Building, ! Name
  ,                                       ! Type
  Construction,                           ! Line Item Type
  189.1-2009 Res 2A Ext Wall Metal Building, ! Item Name
  ,                                       ! Object End Use Key
  ,                                       ! Quantity {dimensionless}
  110.41,                                 ! Material Cost {$}
  CostPerArea;                            ! Material Cost Units

OS:Construction,
  {88b654eb-fa9e-4ce9-ba32-97a643a3e925}, ! Handle
  189.1-2009 Res 2A Ext Wall Metal Building, ! Name
  ,                                       ! Surface Rendering Name
  {c34f3ad0-47c6-494a-a8cc-959ad6121142}, ! Layer 1
  {d85b08a5-6124-4b90-b445-dae2a0ae655e}, ! Layer 2
  {76590f0f-23e3-4947-8a85-2bc0c6778a65}; ! Layer 3

