
OS:Version,
  {36f52133-052b-48b4-9518-0c948e4a940e}, ! Handle
  0.9.3;                                  ! Version Identifier

OS:Material,
  {6008bf3b-eeeb-4366-9a18-a340e5a0938d}, ! Handle
  Wall Insulation [6],                    ! Name
  MediumRough,                            ! Roughness
  0.0678449,                              ! Thickness {m}
  0.045,                                  ! Conductivity {W/m-K}
  265,                                    ! Density {kg/m3}
  836.8,                                  ! Specific Heat {J/kg-K}
  0.9,                                    ! Thermal Absorptance
  0.7,                                    ! Solar Absorptance
  0.7;                                    ! Visible Absorptance

OS:Material:NoMass,
  {dd4bdcf5-4b5d-40b2-b03e-6c843662dd1b}, ! Handle
  MAT-SHEATH,                             ! Name
  Rough,                                  ! Roughness
  0.36256,                                ! Thermal Resistance {m2-K/W}
  0.9,                                    ! Thermal Absorptance
  0.7,                                    ! Solar Absorptance
  0.7;                                    ! Visible Absorptance

OS:ComponentCost:LineItem,
  {9a085ac6-9ea2-4e13-a7ba-7bde9d988cb8}, ! Handle
  90.1-2001 Res B11 Ext Wall Steel-Framed, ! Name
  ,                                       ! Type
  Construction,                           ! Line Item Type
  90.1-2001 Res B11 Ext Wall Steel-Framed, ! Item Name
  ,                                       ! Object End Use Key
  ,                                       ! Quantity {dimensionless}
  91.749,                                 ! Material Cost {$}
  CostPerArea;                            ! Material Cost Units

OS:Construction,
  {aac0d924-96cc-4d44-ab8b-6d344ae0c097}, ! Handle
  90.1-2001 Res B11 Ext Wall Steel-Framed, ! Name
  ,                                       ! Surface Rendering Name
  {dd4bdcf5-4b5d-40b2-b03e-6c843662dd1b}, ! Layer 1
  {6008bf3b-eeeb-4366-9a18-a340e5a0938d}, ! Layer 2
  {f1efe5b3-ffbb-40ea-8d9d-4f0c480f174b}; ! Layer 3

OS:Material,
  {f1efe5b3-ffbb-40ea-8d9d-4f0c480f174b}, ! Handle
  1/2IN Gypsum,                           ! Name
  Smooth,                                 ! Roughness
  0.01271,                                ! Thickness {m}
  0.16,                                   ! Conductivity {W/m-K}
  784.9,                                  ! Density {kg/m3}
  830,                                    ! Specific Heat {J/kg-K}
  0.9,                                    ! Thermal Absorptance
  0.92,                                   ! Solar Absorptance
  0.92;                                   ! Visible Absorptance

