
OS:Version,
  {851587a9-b631-4630-a04f-5a939f972fb6}, ! Handle
  0.9.3;                                  ! Version Identifier

OS:WindowMaterial:Glazing,
  {20837b98-8246-441d-93d4-43789a5f7165}, ! Handle
  Theoretical Glass [217],                ! Name
  SpectralAverage,                        ! Optical Data Type
  ,                                       ! Window Glass Spectral Data Set Name
  0.003,                                  ! Thickness {m}
  0.43998,                                ! Solar Transmittance at Normal Incidence
  0.51002,                                ! Front Side Solar Reflectance at Normal Incidence
  0.51002,                                ! Back Side Solar Reflectance at Normal Incidence
  0.583281,                               ! Visible Transmittance at Normal Incidence
  0.366719,                               ! Front Side Visible Reflectance at Normal Incidence
  0.366719,                               ! Back Side Visible Reflectance at Normal Incidence
  0,                                      ! Infrared Transmittance at Normal Incidence
  0.9,                                    ! Front Side Infrared Hemispherical Emissivity
  0.9,                                    ! Back Side Infrared Hemispherical Emissivity
  0.0133196;                              ! Conductivity {W/m-K}

OS:Construction,
  {4627f196-c9e6-496c-b73f-11e1fff605db}, ! Handle
  189.1-2009 Nonres 6B Skylight without Curb, ! Name
  ,                                       ! Surface Rendering Name
  {20837b98-8246-441d-93d4-43789a5f7165}; ! Layer 1

OS:ComponentCost:LineItem,
  {fb256408-db06-426c-a5aa-5d34a8a3f9a1}, ! Handle
  189.1-2009 Nonres 6B Skylight without Curb, ! Name
  ,                                       ! Type
  Construction,                           ! Line Item Type
  189.1-2009 Nonres 6B Skylight without Curb, ! Item Name
  ,                                       ! Object End Use Key
  ,                                       ! Quantity {dimensionless}
  445.201,                                ! Material Cost {$}
  CostPerArea;                            ! Material Cost Units

