
OS:Version,
  {6e5ea70f-8c21-4a52-b1b9-1fad3e0c886f}, ! Handle
  0.9.3;                                  ! Version Identifier

OS:Construction,
  {86fa1d97-969e-41ba-87c2-10a54d77b29c}, ! Handle
  AEDG SHC Nonres 4B Ext Slab Unheated - 8in Slab with Carpet, ! Name
  ,                                       ! Surface Rendering Name
  {e4ac71c5-6110-4785-8881-0a07d71970a4}, ! Layer 1
  {64f5a022-5bde-4d6c-b9cc-de32544cb937}, ! Layer 2
  {0a083c8c-275b-40a1-82cf-e776991e7998}; ! Layer 3

OS:Material,
  {e4ac71c5-6110-4785-8881-0a07d71970a4}, ! Handle
  Floor Insulation [13],                  ! Name
  MediumRough,                            ! Roughness
  0.00242656,                             ! Thickness {m}
  0.045,                                  ! Conductivity {W/m-K}
  265,                                    ! Density {kg/m3}
  836.8,                                  ! Specific Heat {J/kg-K}
  0.9,                                    ! Thermal Absorptance
  0.7,                                    ! Solar Absorptance
  0.7;                                    ! Visible Absorptance

OS:Material,
  {64f5a022-5bde-4d6c-b9cc-de32544cb937}, ! Handle
  MAT-CC05 8 HW CONCRETE,                 ! Name
  Rough,                                  ! Roughness
  0.20321,                                ! Thickness {m}
  1.311,                                  ! Conductivity {W/m-K}
  2240,                                   ! Density {kg/m3}
  836.8,                                  ! Specific Heat {J/kg-K}
  0.9,                                    ! Thermal Absorptance
  0.7,                                    ! Solar Absorptance
  0.7;                                    ! Visible Absorptance

OS:Material:NoMass,
  {0a083c8c-275b-40a1-82cf-e776991e7998}, ! Handle
  CP02 CARPET PAD,                        ! Name
  VeryRough,                              ! Roughness
  0.21648,                                ! Thermal Resistance {m2-K/W}
  0.9,                                    ! Thermal Absorptance
  0.7,                                    ! Solar Absorptance
  0.8;                                    ! Visible Absorptance

OS:ComponentCost:LineItem,
  {ea0b9dcb-d2e8-4404-9899-d2ff75fc8cfd}, ! Handle
  AEDG SHC Nonres 4B Ext Slab Unheated - 8in Slab with Carpet, ! Name
  ,                                       ! Type
  Construction,                           ! Line Item Type
  AEDG SHC Nonres 4B Ext Slab Unheated - 8in Slab with Carpet, ! Item Name
  ,                                       ! Object End Use Key
  ,                                       ! Quantity {dimensionless}
  0,                                      ! Material Cost {$}
  CostPerArea;                            ! Material Cost Units

OS:ComponentData,
  {028b256f-4b6b-4ad7-bba4-d5d5258a2308}, ! Handle
  Component Data 1,                       ! Name
  {4834ea97-bec4-4115-9273-73b8b34fbdb0}, ! UUID
  {2080187d-0215-41c7-8843-0ce9099ec589}, ! Version UUID
  1363981921,                             ! Creation Timestamp
  1363981921,                             ! Version Timestamp
  {86fa1d97-969e-41ba-87c2-10a54d77b29c}, ! Name of Object 1
  {e4ac71c5-6110-4785-8881-0a07d71970a4}, ! Name of Object 2
  {64f5a022-5bde-4d6c-b9cc-de32544cb937}, ! Name of Object 3
  {0a083c8c-275b-40a1-82cf-e776991e7998}, ! Name of Object 4
  {ea0b9dcb-d2e8-4404-9899-d2ff75fc8cfd}; ! Name of Object 5

