
OS:Version,
  {3e2d03b6-2e04-4a0f-b1a6-cbe35f072dd9}, ! Handle
  0.9.3;                                  ! Version Identifier

OS:Construction,
  {36fdce31-fd6d-4c49-b4bf-3293971a7478}, ! Handle
  90.1-1999 Nonres B18 Ext Slab Unheated - 8in Slab without Carpet, ! Name
  ,                                       ! Surface Rendering Name
  {03947f05-fc65-4f40-8876-992ff9901a6e}; ! Layer 1

OS:Material,
  {03947f05-fc65-4f40-8876-992ff9901a6e}, ! Handle
  MAT-CC05 8 HW CONCRETE,                 ! Name
  Rough,                                  ! Roughness
  0.20321,                                ! Thickness {m}
  1.311,                                  ! Conductivity {W/m-K}
  2240,                                   ! Density {kg/m3}
  836.8,                                  ! Specific Heat {J/kg-K}
  0.9,                                    ! Thermal Absorptance
  0.7,                                    ! Solar Absorptance
  0.7;                                    ! Visible Absorptance

OS:ComponentCost:LineItem,
  {e8351bb8-8d41-4622-b8a1-a02d80c7d87e}, ! Handle
  90.1-1999 Nonres B18 Ext Slab Unheated - 8in Slab without Carpet, ! Name
  ,                                       ! Type
  Construction,                           ! Line Item Type
  90.1-1999 Nonres B18 Ext Slab Unheated - 8in Slab without Carpet, ! Item Name
  ,                                       ! Object End Use Key
  ,                                       ! Quantity {dimensionless}
  45.52,                                  ! Material Cost {$}
  CostPerArea;                            ! Material Cost Units

OS:ComponentData,
  {727c22cf-bcd0-4798-b151-fc91102335cb}, ! Handle
  Component Data 1,                       ! Name
  {d1f17fd9-b104-4525-baa8-84c47cded8cd}, ! UUID
  {ba3a8b80-9864-46e3-b85c-a6ef37883ad0}, ! Version UUID
  1363981120,                             ! Creation Timestamp
  1363981120,                             ! Version Timestamp
  {36fdce31-fd6d-4c49-b4bf-3293971a7478}, ! Name of Object 1
  {03947f05-fc65-4f40-8876-992ff9901a6e}, ! Name of Object 2
  {e8351bb8-8d41-4622-b8a1-a02d80c7d87e}; ! Name of Object 3

