
OS:Version,
  {11ea5c4a-da97-4f3c-879a-9be62ce773f9}, ! Handle
  0.9.3;                                  ! Version Identifier

OS:Material,
  {990ebdc3-50a7-416a-b81b-383090ef4dd7}, ! Handle
  1IN Stucco,                             ! Name
  Smooth,                                 ! Roughness
  0.0253,                                 ! Thickness {m}
  0.6918,                                 ! Conductivity {W/m-K}
  1858,                                   ! Density {kg/m3}
  837,                                    ! Specific Heat {J/kg-K}
  0.9,                                    ! Thermal Absorptance
  0.92,                                   ! Solar Absorptance
  0.92;                                   ! Visible Absorptance

OS:Material,
  {29991ff0-1210-4fd4-8601-26126ad9f080}, ! Handle
  1/2IN Gypsum,                           ! Name
  Smooth,                                 ! Roughness
  0.01271,                                ! Thickness {m}
  0.16,                                   ! Conductivity {W/m-K}
  784.9,                                  ! Density {kg/m3}
  830,                                    ! Specific Heat {J/kg-K}
  0.9,                                    ! Thermal Absorptance
  0.92,                                   ! Solar Absorptance
  0.92;                                   ! Visible Absorptance

OS:Construction,
  {d802403c-abe4-4793-adbb-1fe490496a7c}, ! Handle
  90.1-2007 Nonres 7A Ext Wall Mass,      ! Name
  ,                                       ! Surface Rendering Name
  {990ebdc3-50a7-416a-b81b-383090ef4dd7}, ! Layer 1
  {a558cd43-90c4-4adc-b071-5439b1949009}, ! Layer 2
  {cb012167-7bdc-4ba8-83cd-8975020fed5e}, ! Layer 3
  {29991ff0-1210-4fd4-8601-26126ad9f080}; ! Layer 4

OS:Material,
  {a558cd43-90c4-4adc-b071-5439b1949009}, ! Handle
  8IN Concrete HW,                        ! Name
  MediumRough,                            ! Roughness
  0.2033,                                 ! Thickness {m}
  1.7296,                                 ! Conductivity {W/m-K}
  2243,                                   ! Density {kg/m3}
  837,                                    ! Specific Heat {J/kg-K}
  0.9,                                    ! Thermal Absorptance
  0.65,                                   ! Solar Absorptance
  0.65;                                   ! Visible Absorptance

OS:Material,
  {cb012167-7bdc-4ba8-83cd-8975020fed5e}, ! Handle
  Wall Insulation [22],                   ! Name
  MediumRough,                            ! Roughness
  0.0905334,                              ! Thickness {m}
  0.0432,                                 ! Conductivity {W/m-K}
  91,                                     ! Density {kg/m3}
  837,                                    ! Specific Heat {J/kg-K}
  0.9,                                    ! Thermal Absorptance
  0.5,                                    ! Solar Absorptance
  0.5;                                    ! Visible Absorptance

OS:ComponentCost:LineItem,
  {179de513-0859-46e5-80d4-036e0ff2f2fa}, ! Handle
  90.1-2007 Nonres 7A Ext Wall Mass,      ! Name
  ,                                       ! Type
  Construction,                           ! Line Item Type
  90.1-2007 Nonres 7A Ext Wall Mass,      ! Item Name
  ,                                       ! Object End Use Key
  ,                                       ! Quantity {dimensionless}
  70.26,                                  ! Material Cost {$}
  CostPerArea;                            ! Material Cost Units

