
! 
OS:Version,
  {8503bb35-3288-4176-9c41-752f3d976c4b}, !- Handle
  1.13.0;                                 !- Version Identifier


! 
OS:Material,
  {63ee2da3-c943-471c-af0e-c07ba82a9c0b}, !- Handle
  Aislamiento: SATE
WEBER: weber.therm placa EPS 130 (0.130 m)
R: 3.5 m2K/W,                             !- Name
  MediumRough,                                 !- Roughness
  0.13,                                    !- Thickness {m}
  0.037,                                    !- Conductivity {W/m-K}
  15.0,                                    !- Density {kg/m3}
  800.0,                                    !- Specific Heat {J/kg-K}
  0.9,                                    !- Thermal Absorptance
  0.6,                                    !- Solar Absorptance
  0.6;                                    !- Visible Absorptance

