
OS:Version,
  {c3556f61-b1f8-4e93-bfcf-e77732222911}, ! Handle
  0.9.3;                                  ! Version Identifier

OS:Construction,
  {4e85a028-f2c0-4ce5-81fa-76717ef1dddc}, ! Handle
  90.1-1999 Res B2 Skylight without Curb, ! Name
  ,                                       ! Surface Rendering Name
  {2f3a1322-1273-426a-89ea-cef9e5be2057}; ! Layer 1

OS:WindowMaterial:Glazing,
  {2f3a1322-1273-426a-89ea-cef9e5be2057}, ! Handle
  Theoretical Glass [63],                 ! Name
  SpectralAverage,                        ! Optical Data Type
  ,                                       ! Window Glass Spectral Data Set Name
  0.003,                                  ! Thickness {m}
  0.177255,                               ! Solar Transmittance at Normal Incidence
  0.772745,                               ! Front Side Solar Reflectance at Normal Incidence
  0.772745,                               ! Back Side Solar Reflectance at Normal Incidence
  0.176052,                               ! Visible Transmittance at Normal Incidence
  0.773948,                               ! Front Side Visible Reflectance at Normal Incidence
  0.773948,                               ! Back Side Visible Reflectance at Normal Incidence
  0,                                      ! Infrared Transmittance at Normal Incidence
  0.999,                                  ! Front Side Infrared Hemispherical Emissivity
  0.999,                                  ! Back Side Infrared Hemispherical Emissivity
  72.7123;                                ! Conductivity {W/m-K}

OS:ComponentCost:LineItem,
  {3511226f-dc4a-4322-aedf-1f6ec499efda}, ! Handle
  90.1-1999 Res B2 Skylight without Curb, ! Name
  ,                                       ! Type
  Construction,                           ! Line Item Type
  90.1-1999 Res B2 Skylight without Curb, ! Item Name
  ,                                       ! Object End Use Key
  ,                                       ! Quantity {dimensionless}
  539.136,                                ! Material Cost {$}
  CostPerArea;                            ! Material Cost Units

OS:ComponentData,
  {d615e684-6614-4729-9c66-b7fe38af948b}, ! Handle
  Component Data 1,                       ! Name
  {1b742f09-0cb8-446a-a598-d69e7ad643bf}, ! UUID
  {92aa3ce0-9648-4e4a-8b36-9a19aaaca9b8}, ! Version UUID
  1363981171,                             ! Creation Timestamp
  1363981171,                             ! Version Timestamp
  {4e85a028-f2c0-4ce5-81fa-76717ef1dddc}, ! Name of Object 1
  {2f3a1322-1273-426a-89ea-cef9e5be2057}, ! Name of Object 2
  {3511226f-dc4a-4322-aedf-1f6ec499efda}; ! Name of Object 3

