
OS:Version,
  {28bbf588-b8f8-416c-9252-b19f4ea48428}, ! Handle
  0.9.3;                                  ! Version Identifier

OS:ComponentCost:LineItem,
  {9cbff967-31af-4d90-9940-901bc9d88a4d}, ! Handle
  90.1-1999 Res B2 Skylight without Curb, ! Name
  ,                                       ! Type
  Construction,                           ! Line Item Type
  90.1-1999 Res B2 Skylight without Curb, ! Item Name
  ,                                       ! Object End Use Key
  ,                                       ! Quantity {dimensionless}
  539.136,                                ! Material Cost {$}
  CostPerArea;                            ! Material Cost Units

OS:Construction,
  {95831351-3320-4d5f-a019-a2573a88df22}, ! Handle
  90.1-1999 Res B2 Skylight without Curb, ! Name
  ,                                       ! Surface Rendering Name
  {878b13ee-9ac4-4449-9d1c-2be5f864dbd8}; ! Layer 1

OS:WindowMaterial:Glazing,
  {878b13ee-9ac4-4449-9d1c-2be5f864dbd8}, ! Handle
  Theoretical Glass [63],                 ! Name
  SpectralAverage,                        ! Optical Data Type
  ,                                       ! Window Glass Spectral Data Set Name
  0.003,                                  ! Thickness {m}
  0.177255,                               ! Solar Transmittance at Normal Incidence
  0.772745,                               ! Front Side Solar Reflectance at Normal Incidence
  0.772745,                               ! Back Side Solar Reflectance at Normal Incidence
  0.176052,                               ! Visible Transmittance at Normal Incidence
  0.773948,                               ! Front Side Visible Reflectance at Normal Incidence
  0.773948,                               ! Back Side Visible Reflectance at Normal Incidence
  0,                                      ! Infrared Transmittance at Normal Incidence
  0.999,                                  ! Front Side Infrared Hemispherical Emissivity
  0.999,                                  ! Back Side Infrared Hemispherical Emissivity
  72.7123;                                ! Conductivity {W/m-K}

