
OS:Version,
  {be2add9c-4670-40fb-bb32-5b757b849358}, ! Handle
  0.9.3;                                  ! Version Identifier

OS:Material,
  {5ce3d58f-1604-4b15-ad6c-8177a0ab045a}, ! Handle
  Metal Siding,                           ! Name
  Smooth,                                 ! Roughness
  0.0015,                                 ! Thickness {m}
  44.96,                                  ! Conductivity {W/m-K}
  7688.86,                                ! Density {kg/m3}
  410,                                    ! Specific Heat {J/kg-K}
  0.9,                                    ! Thermal Absorptance
  0.2,                                    ! Solar Absorptance
  0.2;                                    ! Visible Absorptance

OS:ComponentCost:LineItem,
  {f21a5476-3736-4a83-8748-378ce3765573}, ! Handle
  90.1-2001 Nonres B12 Ext Wall Metal Building, ! Name
  ,                                       ! Type
  Construction,                           ! Line Item Type
  90.1-2001 Nonres B12 Ext Wall Metal Building, ! Item Name
  ,                                       ! Object End Use Key
  ,                                       ! Quantity {dimensionless}
  98.78,                                  ! Material Cost {$}
  CostPerArea;                            ! Material Cost Units

OS:Material,
  {95ea6c19-b298-42d9-8053-d734341f48b5}, ! Handle
  Wall Insulation,                        ! Name
  MediumRough,                            ! Roughness
  0.0598725,                              ! Thickness {m}
  0.045,                                  ! Conductivity {W/m-K}
  265,                                    ! Density {kg/m3}
  836.8,                                  ! Specific Heat {J/kg-K}
  0.9,                                    ! Thermal Absorptance
  0.7,                                    ! Solar Absorptance
  0.7;                                    ! Visible Absorptance

OS:Construction,
  {a688680d-30f0-4c5c-b820-b90b3e096f23}, ! Handle
  90.1-2001 Nonres B12 Ext Wall Metal Building, ! Name
  ,                                       ! Surface Rendering Name
  {5ce3d58f-1604-4b15-ad6c-8177a0ab045a}, ! Layer 1
  {95ea6c19-b298-42d9-8053-d734341f48b5}, ! Layer 2
  {1a7c9d2d-7e7b-4cc7-a490-6bd60bee0093}; ! Layer 3

OS:Material,
  {1a7c9d2d-7e7b-4cc7-a490-6bd60bee0093}, ! Handle
  1/2IN Gypsum,                           ! Name
  Smooth,                                 ! Roughness
  0.01271,                                ! Thickness {m}
  0.16,                                   ! Conductivity {W/m-K}
  784.9,                                  ! Density {kg/m3}
  830,                                    ! Specific Heat {J/kg-K}
  0.9,                                    ! Thermal Absorptance
  0.92,                                   ! Solar Absorptance
  0.92;                                   ! Visible Absorptance

