
OS:Version,
  {6dbc0ae5-410f-4f03-a5c3-8fa0b6fd70b2}, ! Handle
  0.9.3;                                  ! Version Identifier

OS:Material,
  {1ff5ce1b-099b-42d5-bb4d-a920d40b60e4}, ! Handle
  MAT-CC05 8 HW CONCRETE,                 ! Name
  Rough,                                  ! Roughness
  0.20321,                                ! Thickness {m}
  1.311,                                  ! Conductivity {W/m-K}
  2240,                                   ! Density {kg/m3}
  836.8,                                  ! Specific Heat {J/kg-K}
  0.9,                                    ! Thermal Absorptance
  0.7,                                    ! Solar Absorptance
  0.7;                                    ! Visible Absorptance

OS:ComponentCost:LineItem,
  {3f8121ff-e74a-4ac9-89ad-5722d8b77322}, ! Handle
  189.1-2009 Res 5B Ext Slab Unheated - 8in Slab with Carpet, ! Name
  ,                                       ! Type
  Construction,                           ! Line Item Type
  189.1-2009 Res 5B Ext Slab Unheated - 8in Slab with Carpet, ! Item Name
  ,                                       ! Object End Use Key
  ,                                       ! Quantity {dimensionless}
  45.52,                                  ! Material Cost {$}
  CostPerArea;                            ! Material Cost Units

OS:Material:NoMass,
  {8dac2dfc-203d-4af8-8bec-8fa8339fb668}, ! Handle
  CP02 CARPET PAD,                        ! Name
  VeryRough,                              ! Roughness
  0.21648,                                ! Thermal Resistance {m2-K/W}
  0.9,                                    ! Thermal Absorptance
  0.7,                                    ! Solar Absorptance
  0.8;                                    ! Visible Absorptance

OS:Construction,
  {e54824da-6f7f-4476-9849-347cc0c42053}, ! Handle
  189.1-2009 Res 5B Ext Slab Unheated - 8in Slab with Carpet, ! Name
  ,                                       ! Surface Rendering Name
  {1ff5ce1b-099b-42d5-bb4d-a920d40b60e4}, ! Layer 1
  {8dac2dfc-203d-4af8-8bec-8fa8339fb668}; ! Layer 2

