
OS:Version,
  {f85facb2-b14d-43fd-9bf8-4e158d76e62b}, ! Handle
  0.9.3;                                  ! Version Identifier

OS:Material,
  {d29480c1-36d9-4bb7-af6a-b3aa8c1dd36b}, ! Handle
  Wall Insulation [13],                   ! Name
  MediumRough,                            ! Roughness
  0.140713,                               ! Thickness {m}
  0.045,                                  ! Conductivity {W/m-K}
  265,                                    ! Density {kg/m3}
  836.8,                                  ! Specific Heat {J/kg-K}
  0.9,                                    ! Thermal Absorptance
  0.7,                                    ! Solar Absorptance
  0.7;                                    ! Visible Absorptance

OS:Material,
  {f57c3d75-c19b-4d28-965a-e6b16f3beac8}, ! Handle
  Wood Siding,                            ! Name
  MediumSmooth,                           ! Roughness
  0.01,                                   ! Thickness {m}
  0.11,                                   ! Conductivity {W/m-K}
  544.62,                                 ! Density {kg/m3}
  1210,                                   ! Specific Heat {J/kg-K}
  0.9,                                    ! Thermal Absorptance
  0.78,                                   ! Solar Absorptance
  0.78;                                   ! Visible Absorptance

OS:Material,
  {2b2c6248-e12d-4e86-a5a1-946c69de99db}, ! Handle
  1/2IN Gypsum,                           ! Name
  Smooth,                                 ! Roughness
  0.01271,                                ! Thickness {m}
  0.16,                                   ! Conductivity {W/m-K}
  784.9,                                  ! Density {kg/m3}
  830,                                    ! Specific Heat {J/kg-K}
  0.9,                                    ! Thermal Absorptance
  0.92,                                   ! Solar Absorptance
  0.92;                                   ! Visible Absorptance

OS:Construction,
  {9adc2ae7-f7b0-41d3-a1e4-62ff6e3660be}, ! Handle
  90.1-2001 Nonres B26 Ext Wall Wood-Framed and Other, ! Name
  ,                                       ! Surface Rendering Name
  {f57c3d75-c19b-4d28-965a-e6b16f3beac8}, ! Layer 1
  {d29480c1-36d9-4bb7-af6a-b3aa8c1dd36b}, ! Layer 2
  {2b2c6248-e12d-4e86-a5a1-946c69de99db}; ! Layer 3

OS:ComponentCost:LineItem,
  {978af27e-b987-4717-aef7-dcaf08fc03da}, ! Handle
  90.1-2001 Nonres B26 Ext Wall Wood-Framed and Other, ! Name
  ,                                       ! Type
  Construction,                           ! Line Item Type
  90.1-2001 Nonres B26 Ext Wall Wood-Framed and Other, ! Item Name
  ,                                       ! Object End Use Key
  ,                                       ! Quantity {dimensionless}
  80.638,                                 ! Material Cost {$}
  CostPerArea;                            ! Material Cost Units

