
OS:Version,
  {a767673e-9c07-442f-a085-ef45a418ccb6}, ! Handle
  0.9.3;                                  ! Version Identifier

OS:Material:NoMass,
  {745ac017-ecce-4bf2-84d8-1ac59eacde70}, ! Handle
  CP02 CARPET PAD,                        ! Name
  VeryRough,                              ! Roughness
  0.21648,                                ! Thermal Resistance {m2-K/W}
  0.9,                                    ! Thermal Absorptance
  0.7,                                    ! Solar Absorptance
  0.8;                                    ! Visible Absorptance

OS:ComponentCost:LineItem,
  {499bc438-b48f-4542-80f9-cc4b2a2bd45d}, ! Handle
  Title 24-2008 Nonres 16 Ext Slab Unheated - 4in Slab with Carpet, ! Name
  ,                                       ! Type
  Construction,                           ! Line Item Type
  Title 24-2008 Nonres 16 Ext Slab Unheated - 4in Slab with Carpet, ! Item Name
  ,                                       ! Object End Use Key
  ,                                       ! Quantity {dimensionless}
  45.52,                                  ! Material Cost {$}
  CostPerArea;                            ! Material Cost Units

OS:Construction,
  {c566a305-5341-47e0-9582-bc8ea15506f1}, ! Handle
  Title 24-2008 Nonres 16 Ext Slab Unheated - 4in Slab with Carpet, ! Name
  ,                                       ! Surface Rendering Name
  {6bb3d344-5013-45ed-84fc-53322c995d7c}, ! Layer 1
  {745ac017-ecce-4bf2-84d8-1ac59eacde70}; ! Layer 2

OS:Material,
  {6bb3d344-5013-45ed-84fc-53322c995d7c}, ! Handle
  MAT-CC05 4 HW CONCRETE,                 ! Name
  Rough,                                  ! Roughness
  0.1016,                                 ! Thickness {m}
  1.311,                                  ! Conductivity {W/m-K}
  2240,                                   ! Density {kg/m3}
  836.8,                                  ! Specific Heat {J/kg-K}
  0.9,                                    ! Thermal Absorptance
  0.7,                                    ! Solar Absorptance
  0.7;                                    ! Visible Absorptance

