
OS:Version,
  {919fa1f6-1bab-41f1-9a51-9a1131a24057}, ! Handle
  0.9.3;                                  ! Version Identifier

OS:Material,
  {3e86a4f5-975b-417c-bdf4-0bf3b134d17a}, ! Handle
  METAL Door Medium 18Ga,                 ! Name
  Smooth,                                 ! Roughness
  0.0013106,                              ! Thickness {m}
  45.3149,                                ! Conductivity {W/m-K}
  7833.03,                                ! Density {kg/m3}
  502.08,                                 ! Specific Heat {J/kg-K}
  0.8,                                    ! Thermal Absorptance
  0.5,                                    ! Solar Absorptance
  0.5;                                    ! Visible Absorptance

OS:Material,
  {8daccf94-54eb-42fa-9fe7-e529a52e63cd}, ! Handle
  METAL Door Medium 18Ga_2,               ! Name
  Smooth,                                 ! Roughness
  0.0013106,                              ! Thickness {m}
  45.3149,                                ! Conductivity {W/m-K}
  7833.03,                                ! Density {kg/m3}
  502.08,                                 ! Specific Heat {J/kg-K}
  0.8,                                    ! Thermal Absorptance
  0.5,                                    ! Solar Absorptance
  0.5;                                    ! Visible Absorptance

OS:Material:NoMass,
  {9be7de29-2183-4145-bd67-3638c2530431}, ! Handle
  AIR [16],                               ! Name
  Smooth,                                 ! Roughness
  0.121454,                               ! Thermal Resistance {m2-K/W}
  0.8,                                    ! Thermal Absorptance
  0.5,                                    ! Solar Absorptance
  0.5;                                    ! Visible Absorptance

OS:ComponentCost:LineItem,
  {82432f58-12e9-4bdb-975d-d2891bfb7281}, ! Handle
  Title 24-2008 Nonres 15 Door Non-Swinging, ! Name
  ,                                       ! Type
  Construction,                           ! Line Item Type
  Title 24-2008 Nonres 15 Door Non-Swinging, ! Item Name
  ,                                       ! Object End Use Key
  ,                                       ! Quantity {dimensionless}
  0,                                      ! Material Cost {$}
  CostPerArea;                            ! Material Cost Units

OS:Construction,
  {36dfdb43-3d92-4e38-b10f-60f581097f16}, ! Handle
  Title 24-2008 Nonres 15 Door Non-Swinging, ! Name
  ,                                       ! Surface Rendering Name
  {3e86a4f5-975b-417c-bdf4-0bf3b134d17a}, ! Layer 1
  {9be7de29-2183-4145-bd67-3638c2530431}, ! Layer 2
  {8daccf94-54eb-42fa-9fe7-e529a52e63cd}; ! Layer 3

