
OS:Version,
  {199ad828-0f71-456e-b4a5-cce7d21523e7}, ! Handle
  0.9.3;                                  ! Version Identifier

OS:ComponentCost:LineItem,
  {8d725de0-bfc5-4d4e-8539-4efe47a7c588}, ! Handle
  90.1-2007 Nonres 7A Roof IEAD,          ! Name
  ,                                       ! Type
  Construction,                           ! Line Item Type
  90.1-2007 Nonres 7A Roof IEAD,          ! Item Name
  ,                                       ! Object End Use Key
  ,                                       ! Quantity {dimensionless}
  52.87,                                  ! Material Cost {$}
  CostPerArea;                            ! Material Cost Units

OS:Material,
  {1a7fac2f-2e38-47cd-824b-8050aa80c50a}, ! Handle
  Roof Insulation [14],                   ! Name
  MediumRough,                            ! Roughness
  0.167335,                               ! Thickness {m}
  0.049,                                  ! Conductivity {W/m-K}
  265,                                    ! Density {kg/m3}
  836.8,                                  ! Specific Heat {J/kg-K}
  0.9,                                    ! Thermal Absorptance
  0.7,                                    ! Solar Absorptance
  0.7;                                    ! Visible Absorptance

OS:Material,
  {a378bef5-da9d-449f-b0bd-4362b56d745c}, ! Handle
  Metal Decking,                          ! Name
  MediumSmooth,                           ! Roughness
  0.001524,                               ! Thickness {m}
  45.006,                                 ! Conductivity {W/m-K}
  7680,                                   ! Density {kg/m3}
  418.4,                                  ! Specific Heat {J/kg-K}
  0.9,                                    ! Thermal Absorptance
  0.7,                                    ! Solar Absorptance
  0.3;                                    ! Visible Absorptance

OS:Construction,
  {61e85807-d48b-4ccc-8844-864806e409ce}, ! Handle
  90.1-2007 Nonres 7A Roof IEAD,          ! Name
  ,                                       ! Surface Rendering Name
  {42985284-8dc5-4b02-8941-4ce9a7993036}, ! Layer 1
  {1a7fac2f-2e38-47cd-824b-8050aa80c50a}, ! Layer 2
  {a378bef5-da9d-449f-b0bd-4362b56d745c}; ! Layer 3

OS:Material,
  {42985284-8dc5-4b02-8941-4ce9a7993036}, ! Handle
  Roof Membrane,                          ! Name
  VeryRough,                              ! Roughness
  0.0095,                                 ! Thickness {m}
  0.16,                                   ! Conductivity {W/m-K}
  1121.29,                                ! Density {kg/m3}
  1460,                                   ! Specific Heat {J/kg-K}
  0.9,                                    ! Thermal Absorptance
  0.7,                                    ! Solar Absorptance
  0.7;                                    ! Visible Absorptance

