
OS:Version,
  {f0d257b4-7dd4-4a86-bcdf-0c3d1cbe341d}, ! Handle
  0.9.3;                                  ! Version Identifier

OS:ComponentCost:LineItem,
  {f4499c70-8676-4d53-a1c2-5b90be2ae2cb}, ! Handle
  189.1-2009 Nonres 7A Window Metal framing all other, ! Name
  ,                                       ! Type
  Construction,                           ! Line Item Type
  189.1-2009 Nonres 7A Window Metal framing all other, ! Item Name
  ,                                       ! Object End Use Key
  ,                                       ! Quantity {dimensionless}
  508.362,                                ! Material Cost {$}
  CostPerArea;                            ! Material Cost Units

OS:Construction,
  {712f6f5f-b242-4a69-b6c3-d20d30b74832}, ! Handle
  189.1-2009 Nonres 7A Window Metal framing all other, ! Name
  ,                                       ! Surface Rendering Name
  {dcae20c2-97f2-43c6-90a2-cf129b97edab}; ! Layer 1

OS:WindowMaterial:Glazing,
  {dcae20c2-97f2-43c6-90a2-cf129b97edab}, ! Handle
  Theoretical Glass [221],                ! Name
  SpectralAverage,                        ! Optical Data Type
  ,                                       ! Window Glass Spectral Data Set Name
  0.003,                                  ! Thickness {m}
  0.429551,                               ! Solar Transmittance at Normal Incidence
  0.520449,                               ! Front Side Solar Reflectance at Normal Incidence
  0.520449,                               ! Back Side Solar Reflectance at Normal Incidence
  0.450308,                               ! Visible Transmittance at Normal Incidence
  0.499692,                               ! Front Side Visible Reflectance at Normal Incidence
  0.499692,                               ! Back Side Visible Reflectance at Normal Incidence
  0,                                      ! Infrared Transmittance at Normal Incidence
  0.9,                                    ! Front Side Infrared Hemispherical Emissivity
  0.9,                                    ! Back Side Infrared Hemispherical Emissivity
  0.00893994;                             ! Conductivity {W/m-K}

