
OS:Version,
  {cccc2712-9435-4e1f-9342-08d405a8fe14}, ! Handle
  0.9.3;                                  ! Version Identifier

OS:Construction,
  {499f932e-1b95-4a11-b35c-8a7dc883513d}, ! Handle
  189.1-2009 Nonres 7A Window Metal framing all other, ! Name
  ,                                       ! Surface Rendering Name
  {81850c46-7148-4344-a074-2f1dbbcc0a82}; ! Layer 1

OS:WindowMaterial:Glazing,
  {81850c46-7148-4344-a074-2f1dbbcc0a82}, ! Handle
  Theoretical Glass [221],                ! Name
  SpectralAverage,                        ! Optical Data Type
  ,                                       ! Window Glass Spectral Data Set Name
  0.003,                                  ! Thickness {m}
  0.429551,                               ! Solar Transmittance at Normal Incidence
  0.520449,                               ! Front Side Solar Reflectance at Normal Incidence
  0.520449,                               ! Back Side Solar Reflectance at Normal Incidence
  0.450308,                               ! Visible Transmittance at Normal Incidence
  0.499692,                               ! Front Side Visible Reflectance at Normal Incidence
  0.499692,                               ! Back Side Visible Reflectance at Normal Incidence
  0,                                      ! Infrared Transmittance at Normal Incidence
  0.9,                                    ! Front Side Infrared Hemispherical Emissivity
  0.9,                                    ! Back Side Infrared Hemispherical Emissivity
  0.00893994;                             ! Conductivity {W/m-K}

OS:ComponentCost:LineItem,
  {2a8e72da-a2f1-4992-b2f7-46b1cb4dbca3}, ! Handle
  189.1-2009 Nonres 7A Window Metal framing all other, ! Name
  ,                                       ! Type
  Construction,                           ! Line Item Type
  189.1-2009 Nonres 7A Window Metal framing all other, ! Item Name
  ,                                       ! Object End Use Key
  ,                                       ! Quantity {dimensionless}
  508.362,                                ! Material Cost {$}
  CostPerArea;                            ! Material Cost Units

OS:ComponentData,
  {c9801d67-9b49-4046-a9f0-46892728665f}, ! Handle
  Component Data 1,                       ! Name
  {4c291b84-8e8f-44ad-8ef7-d8ceb48d3973}, ! UUID
  {e834d6a3-207f-4712-b6c5-83784ce6e55c}, ! Version UUID
  1363980953,                             ! Creation Timestamp
  1363980953,                             ! Version Timestamp
  {499f932e-1b95-4a11-b35c-8a7dc883513d}, ! Name of Object 1
  {81850c46-7148-4344-a074-2f1dbbcc0a82}, ! Name of Object 2
  {2a8e72da-a2f1-4992-b2f7-46b1cb4dbca3}; ! Name of Object 3

