
OS:Version,
  {b2654b51-f645-419f-8979-2aa01b49b582}, ! Handle
  0.9.3;                                  ! Version Identifier

OS:Construction,
  {6016ad2c-b1e5-42a6-aac2-cc4260b98a1d}, ! Handle
  90.1-2001 Nonres B12 Ext Slab Unheated - 8in Slab with Carpet, ! Name
  ,                                       ! Surface Rendering Name
  {f59783ee-d51c-43d3-a5bd-56c4caf5a356}, ! Layer 1
  {4b8612c6-ad68-4db7-af41-480c50f423ac}; ! Layer 2

OS:Material,
  {f59783ee-d51c-43d3-a5bd-56c4caf5a356}, ! Handle
  MAT-CC05 8 HW CONCRETE,                 ! Name
  Rough,                                  ! Roughness
  0.20321,                                ! Thickness {m}
  1.311,                                  ! Conductivity {W/m-K}
  2240,                                   ! Density {kg/m3}
  836.8,                                  ! Specific Heat {J/kg-K}
  0.9,                                    ! Thermal Absorptance
  0.7,                                    ! Solar Absorptance
  0.7;                                    ! Visible Absorptance

OS:Material:NoMass,
  {4b8612c6-ad68-4db7-af41-480c50f423ac}, ! Handle
  CP02 CARPET PAD,                        ! Name
  VeryRough,                              ! Roughness
  0.21648,                                ! Thermal Resistance {m2-K/W}
  0.9,                                    ! Thermal Absorptance
  0.7,                                    ! Solar Absorptance
  0.8;                                    ! Visible Absorptance

OS:ComponentCost:LineItem,
  {9d36ac0a-3d88-4ffa-a6dc-7025897796ab}, ! Handle
  90.1-2001 Nonres B12 Ext Slab Unheated - 8in Slab with Carpet, ! Name
  ,                                       ! Type
  Construction,                           ! Line Item Type
  90.1-2001 Nonres B12 Ext Slab Unheated - 8in Slab with Carpet, ! Item Name
  ,                                       ! Object End Use Key
  ,                                       ! Quantity {dimensionless}
  45.52,                                  ! Material Cost {$}
  CostPerArea;                            ! Material Cost Units

