
OS:Version,
  {7cdc1cde-e8ed-4855-8941-ad8d6b082a48}, ! Handle
  0.9.3;                                  ! Version Identifier

OS:ComponentCost:LineItem,
  {f7d6d7fc-8d8d-420f-943b-916b37a33f43}, ! Handle
  90.1-1999 Nonres B5 Ext Wall Mass,      ! Name
  ,                                       ! Type
  Construction,                           ! Line Item Type
  90.1-1999 Nonres B5 Ext Wall Mass,      ! Item Name
  ,                                       ! Object End Use Key
  ,                                       ! Quantity {dimensionless}
  41.397,                                 ! Material Cost {$}
  CostPerArea;                            ! Material Cost Units

OS:Material,
  {fa4b756e-df6f-4b96-b066-751d2a4f8028}, ! Handle
  1IN Stucco,                             ! Name
  Smooth,                                 ! Roughness
  0.0253,                                 ! Thickness {m}
  0.6918,                                 ! Conductivity {W/m-K}
  1858,                                   ! Density {kg/m3}
  837,                                    ! Specific Heat {J/kg-K}
  0.9,                                    ! Thermal Absorptance
  0.92,                                   ! Solar Absorptance
  0.92;                                   ! Visible Absorptance

OS:Material,
  {71ebbf33-ed7e-413a-93ea-b26d967a8ddb}, ! Handle
  8IN Concrete HW,                        ! Name
  MediumRough,                            ! Roughness
  0.2033,                                 ! Thickness {m}
  1.7296,                                 ! Conductivity {W/m-K}
  2243,                                   ! Density {kg/m3}
  837,                                    ! Specific Heat {J/kg-K}
  0.9,                                    ! Thermal Absorptance
  0.65,                                   ! Solar Absorptance
  0.65;                                   ! Visible Absorptance

OS:Construction,
  {39440bd6-2e1f-4d48-889c-b33c00d8db8f}, ! Handle
  90.1-1999 Nonres B5 Ext Wall Mass,      ! Name
  ,                                       ! Surface Rendering Name
  {fa4b756e-df6f-4b96-b066-751d2a4f8028}, ! Layer 1
  {71ebbf33-ed7e-413a-93ea-b26d967a8ddb}, ! Layer 2
  {6d68635f-4f07-4307-86c8-8183d8e3fa89}; ! Layer 3

OS:Material,
  {6d68635f-4f07-4307-86c8-8183d8e3fa89}, ! Handle
  1/2IN Gypsum,                           ! Name
  Smooth,                                 ! Roughness
  0.01271,                                ! Thickness {m}
  0.16,                                   ! Conductivity {W/m-K}
  784.9,                                  ! Density {kg/m3}
  830,                                    ! Specific Heat {J/kg-K}
  0.9,                                    ! Thermal Absorptance
  0.92,                                   ! Solar Absorptance
  0.92;                                   ! Visible Absorptance

