
OS:Version,
  {44caf978-037c-49e3-bd31-5daa28c0c8f6}, ! Handle
  0.9.3;                                  ! Version Identifier

OS:ComponentCost:LineItem,
  {bad60763-d396-4cad-b15a-f43b7dd05c31}, ! Handle
  90.1-2004 Nonres 3C Int Wall,           ! Name
  ,                                       ! Type
  Construction,                           ! Line Item Type
  90.1-2004 Nonres 3C Int Wall,           ! Item Name
  ,                                       ! Object End Use Key
  ,                                       ! Quantity {dimensionless}
  0,                                      ! Material Cost {$}
  CostPerArea;                            ! Material Cost Units

OS:Construction,
  {661aca93-0946-4d17-9a45-165fcfacde86}, ! Handle
  90.1-2004 Nonres 3C Int Wall,           ! Name
  ,                                       ! Surface Rendering Name
  {c70b46c8-ebf7-4544-bbdc-eb514439b23e}, ! Layer 1
  {c70b46c8-ebf7-4544-bbdc-eb514439b23e}; ! Layer 2

OS:Material,
  {c70b46c8-ebf7-4544-bbdc-eb514439b23e}, ! Handle
  GP01 1/2 GYPSUM,                        ! Name
  Smooth,                                 ! Roughness
  0.01271,                                ! Thickness {m}
  0.16,                                   ! Conductivity {W/m-K}
  800,                                    ! Density {kg/m3}
  1090,                                   ! Specific Heat {J/kg-K}
  0.9,                                    ! Thermal Absorptance
  0.7,                                    ! Solar Absorptance
  0.5;                                    ! Visible Absorptance

OS:Material,
  {3280118e-8aba-4ff4-8120-bec1ae2956aa}, ! Handle
  GP01 1/2 GYPSUM 1,                      ! Name
  Smooth,                                 ! Roughness
  0.01271,                                ! Thickness {m}
  0.16,                                   ! Conductivity {W/m-K}
  800,                                    ! Density {kg/m3}
  1090,                                   ! Specific Heat {J/kg-K}
  0.9,                                    ! Thermal Absorptance
  0.7,                                    ! Solar Absorptance
  0.5;                                    ! Visible Absorptance

