
OS:Version,
  {4d3359a1-5ba5-4347-a176-27ecad55d829}, ! Handle
  0.9.3;                                  ! Version Identifier

OS:Construction,
  {be0a0ef5-1bae-41ca-b3ea-b037a1d40731}, ! Handle
  90.1-2004 Nonres 3C Int Wall,           ! Name
  ,                                       ! Surface Rendering Name
  {0cb3975d-8857-46fe-bc64-e6885bf8c1cf}, ! Layer 1
  {0cb3975d-8857-46fe-bc64-e6885bf8c1cf}; ! Layer 2

OS:Material,
  {0cb3975d-8857-46fe-bc64-e6885bf8c1cf}, ! Handle
  GP01 1/2 GYPSUM,                        ! Name
  Smooth,                                 ! Roughness
  0.01271,                                ! Thickness {m}
  0.16,                                   ! Conductivity {W/m-K}
  800,                                    ! Density {kg/m3}
  1090,                                   ! Specific Heat {J/kg-K}
  0.9,                                    ! Thermal Absorptance
  0.7,                                    ! Solar Absorptance
  0.5;                                    ! Visible Absorptance

OS:ComponentCost:LineItem,
  {c3a3b9eb-573b-43ee-92c7-151e722b7578}, ! Handle
  90.1-2004 Nonres 3C Int Wall,           ! Name
  ,                                       ! Type
  Construction,                           ! Line Item Type
  90.1-2004 Nonres 3C Int Wall,           ! Item Name
  ,                                       ! Object End Use Key
  ,                                       ! Quantity {dimensionless}
  0,                                      ! Material Cost {$}
  CostPerArea;                            ! Material Cost Units

OS:ComponentData,
  {cf591cb0-aa48-4df4-9404-af8dd7101900}, ! Handle
  Component Data 1,                       ! Name
  {5a4e5715-f183-4aad-8c01-06db26d3c9d0}, ! UUID
  {75ab2d95-92de-4503-a80b-f8678c0d8fe9}, ! Version UUID
  1363981653,                             ! Creation Timestamp
  1363981653,                             ! Version Timestamp
  {be0a0ef5-1bae-41ca-b3ea-b037a1d40731}, ! Name of Object 1
  {0cb3975d-8857-46fe-bc64-e6885bf8c1cf}, ! Name of Object 2
  {c3a3b9eb-573b-43ee-92c7-151e722b7578}; ! Name of Object 3

