
OS:Version,
  {24fb5c2b-6b82-4a44-8312-54774f94bf6f}, ! Handle
  0.9.3;                                  ! Version Identifier

OS:Construction,
  {37698c09-018d-4974-87d0-f8f0c0a70e72}, ! Handle
  90.1-1999 Nonres B7 Ext Wall Wood-Framed and Other, ! Name
  ,                                       ! Surface Rendering Name
  {f6b88de3-fb0e-4ef0-bd5a-fa8f61b4b754}, ! Layer 1
  {ecc1d930-9010-4b4e-b687-c2b0f28b3970}, ! Layer 2
  {f943c1a4-43a6-4121-9846-b785f7acdb47}; ! Layer 3

OS:Material,
  {f6b88de3-fb0e-4ef0-bd5a-fa8f61b4b754}, ! Handle
  Wood Siding,                            ! Name
  MediumSmooth,                           ! Roughness
  0.01,                                   ! Thickness {m}
  0.11,                                   ! Conductivity {W/m-K}
  544.62,                                 ! Density {kg/m3}
  1210,                                   ! Specific Heat {J/kg-K}
  0.9,                                    ! Thermal Absorptance
  0.78,                                   ! Solar Absorptance
  0.78;                                   ! Visible Absorptance

OS:Material,
  {ecc1d930-9010-4b4e-b687-c2b0f28b3970}, ! Handle
  Wall Insulation [2],                    ! Name
  MediumRough,                            ! Roughness
  0.0746874,                              ! Thickness {m}
  0.045,                                  ! Conductivity {W/m-K}
  265,                                    ! Density {kg/m3}
  836.8,                                  ! Specific Heat {J/kg-K}
  0.9,                                    ! Thermal Absorptance
  0.7,                                    ! Solar Absorptance
  0.7;                                    ! Visible Absorptance

OS:Material,
  {f943c1a4-43a6-4121-9846-b785f7acdb47}, ! Handle
  1/2IN Gypsum,                           ! Name
  Smooth,                                 ! Roughness
  0.01271,                                ! Thickness {m}
  0.16,                                   ! Conductivity {W/m-K}
  784.9,                                  ! Density {kg/m3}
  830,                                    ! Specific Heat {J/kg-K}
  0.9,                                    ! Thermal Absorptance
  0.92,                                   ! Solar Absorptance
  0.92;                                   ! Visible Absorptance

OS:ComponentCost:LineItem,
  {fb627fbd-adaf-44be-baab-03cbf9c0a6bf}, ! Handle
  90.1-1999 Nonres B7 Ext Wall Wood-Framed and Other, ! Name
  ,                                       ! Type
  Construction,                           ! Line Item Type
  90.1-1999 Nonres B7 Ext Wall Wood-Framed and Other, ! Item Name
  ,                                       ! Object End Use Key
  ,                                       ! Quantity {dimensionless}
  73.056,                                 ! Material Cost {$}
  CostPerArea;                            ! Material Cost Units

OS:ComponentData,
  {90ade1fb-f773-43aa-b757-b370e536ef90}, ! Handle
  Component Data 1,                       ! Name
  {29ceb360-a138-4f08-9043-3ac748aa1309}, ! UUID
  {75cfd5d0-ebea-498f-b575-0f63bcb58790}, ! Version UUID
  1363981067,                             ! Creation Timestamp
  1363981067,                             ! Version Timestamp
  {37698c09-018d-4974-87d0-f8f0c0a70e72}, ! Name of Object 1
  {f6b88de3-fb0e-4ef0-bd5a-fa8f61b4b754}, ! Name of Object 2
  {ecc1d930-9010-4b4e-b687-c2b0f28b3970}, ! Name of Object 3
  {f943c1a4-43a6-4121-9846-b785f7acdb47}, ! Name of Object 4
  {fb627fbd-adaf-44be-baab-03cbf9c0a6bf}; ! Name of Object 5

