
OS:Version,
  {1e6702ce-f242-4eaa-a269-96bdc50b2501}, ! Handle
  0.9.3;                                  ! Version Identifier

OS:ComponentCost:LineItem,
  {17039d6c-f43a-4e11-aa32-fc359f1053cb}, ! Handle
  90.1-2007 Nonres 3A Exposed Floor Mass, ! Name
  ,                                       ! Type
  Construction,                           ! Line Item Type
  90.1-2007 Nonres 3A Exposed Floor Mass, ! Item Name
  ,                                       ! Object End Use Key
  ,                                       ! Quantity {dimensionless}
  47.214,                                 ! Material Cost {$}
  CostPerArea;                            ! Material Cost Units

OS:Material:NoMass,
  {9f9176cf-b478-4c25-9902-171a7db51175}, ! Handle
  CP02 CARPET PAD,                        ! Name
  VeryRough,                              ! Roughness
  0.21648,                                ! Thermal Resistance {m2-K/W}
  0.9,                                    ! Thermal Absorptance
  0.7,                                    ! Solar Absorptance
  0.8;                                    ! Visible Absorptance

OS:Material,
  {0c7a0c7b-268c-4489-9ed0-69cce56d087f}, ! Handle
  Floor Insulation [1],                   ! Name
  MediumRough,                            ! Roughness
  0.0463846,                              ! Thickness {m}
  0.045,                                  ! Conductivity {W/m-K}
  265,                                    ! Density {kg/m3}
  836.8,                                  ! Specific Heat {J/kg-K}
  0.9,                                    ! Thermal Absorptance
  0.7,                                    ! Solar Absorptance
  0.7;                                    ! Visible Absorptance

OS:Construction,
  {16affdee-c359-4447-a54c-4672ba89e701}, ! Handle
  90.1-2007 Nonres 3A Exposed Floor Mass, ! Name
  ,                                       ! Surface Rendering Name
  {0c7a0c7b-268c-4489-9ed0-69cce56d087f}, ! Layer 1
  {2ca913cd-9549-4e97-bb82-8216344a43e5}, ! Layer 2
  {9f9176cf-b478-4c25-9902-171a7db51175}; ! Layer 3

OS:Material,
  {2ca913cd-9549-4e97-bb82-8216344a43e5}, ! Handle
  MAT-CC05 8 HW CONCRETE,                 ! Name
  Rough,                                  ! Roughness
  0.20321,                                ! Thickness {m}
  1.311,                                  ! Conductivity {W/m-K}
  2240,                                   ! Density {kg/m3}
  836.8,                                  ! Specific Heat {J/kg-K}
  0.9,                                    ! Thermal Absorptance
  0.7,                                    ! Solar Absorptance
  0.7;                                    ! Visible Absorptance

