
OS:Version,
  {d42a506e-6a97-4d59-9629-c1affd0424b9}, !- Handle
  1.1.0;                                  !- Version Identifier

OS:Construction,
  {f251bd89-27b1-4f43-a30c-33c016f49dc2}, !- Handle
  Sgl Ref-A-L Clr 6mm,                    !- Name
  ,                                       !- Surface Rendering Name
  {301a2908-1337-4aed-878d-34b279185944}; !- Layer 1

OS:WindowMaterial:Glazing,
  {301a2908-1337-4aed-878d-34b279185944}, !- Handle
  REF A CLEAR LO 6MM,                     !- Name
  SpectralAverage,                        !- Optical Data Type
  ,                                       !- Window Glass Spectral Data Set Name
  0.006,                                  !- Thickness {m}
  0.066,                                  !- Solar Transmittance at Normal Incidence
  0.341,                                  !- Front Side Solar Reflectance at Normal Incidence
  0.493,                                  !- Back Side Solar Reflectance at Normal Incidence
  0.08,                                   !- Visible Transmittance at Normal Incidence
  0.41,                                   !- Front Side Visible Reflectance at Normal Incidence
  0.37,                                   !- Back Side Visible Reflectance at Normal Incidence
  0,                                      !- Infrared Transmittance at Normal Incidence
  0.84,                                   !- Front Side Infrared Hemispherical Emissivity
  0.4,                                    !- Back Side Infrared Hemispherical Emissivity
  0.9;                                    !- Conductivity {W/m-K}

