
OS:Version,
  {3fef39cb-c3ba-451b-83ed-16e793f834de}, ! Handle
  0.9.3;                                  ! Version Identifier

OS:Construction,
  {7c1d2379-453e-4fab-b6d2-26504bd5ab5b}, ! Handle
  AEDG SHC Nonres 6B Skylight without Curb, ! Name
  ,                                       ! Surface Rendering Name
  {0f8b20be-9d8f-4ab1-b590-9b8cfc21d15e}; ! Layer 1

OS:WindowMaterial:Glazing,
  {0f8b20be-9d8f-4ab1-b590-9b8cfc21d15e}, ! Handle
  Theoretical Glass [242],                ! Name
  SpectralAverage,                        ! Optical Data Type
  ,                                       ! Window Glass Spectral Data Set Name
  0.003,                                  ! Thickness {m}
  0.381632,                               ! Solar Transmittance at Normal Incidence
  0.568368,                               ! Front Side Solar Reflectance at Normal Incidence
  0.568368,                               ! Back Side Solar Reflectance at Normal Incidence
  0.549983,                               ! Visible Transmittance at Normal Incidence
  0.400017,                               ! Front Side Visible Reflectance at Normal Incidence
  0.400017,                               ! Back Side Visible Reflectance at Normal Incidence
  0,                                      ! Infrared Transmittance at Normal Incidence
  0.9,                                    ! Front Side Infrared Hemispherical Emissivity
  0.9,                                    ! Back Side Infrared Hemispherical Emissivity
  0.0230964;                              ! Conductivity {W/m-K}

OS:ComponentCost:LineItem,
  {3e132a95-91a4-4b63-8025-0d2573241f0d}, ! Handle
  AEDG SHC Nonres 6B Skylight without Curb, ! Name
  ,                                       ! Type
  Construction,                           ! Line Item Type
  AEDG SHC Nonres 6B Skylight without Curb, ! Item Name
  ,                                       ! Object End Use Key
  ,                                       ! Quantity {dimensionless}
  0,                                      ! Material Cost {$}
  CostPerArea;                            ! Material Cost Units

OS:ComponentData,
  {330ef4d9-e282-43fe-9cf2-254383be20ff}, ! Handle
  Component Data 1,                       ! Name
  {89b29ee1-72aa-40ed-b4dc-e0f811c38f50}, ! UUID
  {5ecf25b2-f6f8-4c93-84bc-e64fe0377f7d}, ! Version UUID
  1363981928,                             ! Creation Timestamp
  1363981928,                             ! Version Timestamp
  {7c1d2379-453e-4fab-b6d2-26504bd5ab5b}, ! Name of Object 1
  {0f8b20be-9d8f-4ab1-b590-9b8cfc21d15e}, ! Name of Object 2
  {3e132a95-91a4-4b63-8025-0d2573241f0d}; ! Name of Object 3

