
OS:Version,
  {0f4e4895-9482-430b-99d6-617e3f825fc3}, ! Handle
  0.9.3;                                  ! Version Identifier

OS:Material,
  {0ae49ca1-172b-4cec-b986-acbebbe9aea2}, ! Handle
  MAT-CC05 4 HW CONCRETE,                 ! Name
  Rough,                                  ! Roughness
  0.1016,                                 ! Thickness {m}
  1.311,                                  ! Conductivity {W/m-K}
  2240,                                   ! Density {kg/m3}
  836.8,                                  ! Specific Heat {J/kg-K}
  0.9,                                    ! Thermal Absorptance
  0.7,                                    ! Solar Absorptance
  0.7;                                    ! Visible Absorptance

OS:Construction,
  {3e403efa-50b5-48b6-bccb-91d01cfb0578}, ! Handle
  90.1-2004 Res 7A Ext Slab Unheated - 4in Slab without Carpet, ! Name
  ,                                       ! Surface Rendering Name
  {0ae49ca1-172b-4cec-b986-acbebbe9aea2}; ! Layer 1

OS:ComponentCost:LineItem,
  {477a2764-7347-4f2a-bb88-5ba896a71c74}, ! Handle
  90.1-2004 Res 7A Ext Slab Unheated - 4in Slab without Carpet, ! Name
  ,                                       ! Type
  Construction,                           ! Line Item Type
  90.1-2004 Res 7A Ext Slab Unheated - 4in Slab without Carpet, ! Item Name
  ,                                       ! Object End Use Key
  ,                                       ! Quantity {dimensionless}
  45.52,                                  ! Material Cost {$}
  CostPerArea;                            ! Material Cost Units

