
OS:Version,
  {58e25110-10c2-482b-ad12-295f0515aace}, ! Handle
  0.9.3;                                  ! Version Identifier

OS:Material,
  {8b25c690-1c8d-4d4a-a9d9-c0188ff41b84}, ! Handle
  Roof Insulation,                        ! Name
  MediumRough,                            ! Roughness
  0.124958,                               ! Thickness {m}
  0.049,                                  ! Conductivity {W/m-K}
  265,                                    ! Density {kg/m3}
  836.8,                                  ! Specific Heat {J/kg-K}
  0.9,                                    ! Thermal Absorptance
  0.7,                                    ! Solar Absorptance
  0.7;                                    ! Visible Absorptance

OS:Material,
  {377ece19-ff1d-4347-81a6-3a908150c0f1}, ! Handle
  Roof Membrane,                          ! Name
  VeryRough,                              ! Roughness
  0.0095,                                 ! Thickness {m}
  0.16,                                   ! Conductivity {W/m-K}
  1121.29,                                ! Density {kg/m3}
  1460,                                   ! Specific Heat {J/kg-K}
  0.9,                                    ! Thermal Absorptance
  0.7,                                    ! Solar Absorptance
  0.7;                                    ! Visible Absorptance

OS:ComponentCost:LineItem,
  {e2b594d4-a044-420d-9a44-3b3e1823d10a}, ! Handle
  90.1-1999 Nonres B9 Roof IEAD,          ! Name
  ,                                       ! Type
  Construction,                           ! Line Item Type
  90.1-1999 Nonres B9 Roof IEAD,          ! Item Name
  ,                                       ! Object End Use Key
  ,                                       ! Quantity {dimensionless}
  49.208,                                 ! Material Cost {$}
  CostPerArea;                            ! Material Cost Units

OS:Construction,
  {445ee069-62a7-45c1-afef-0aac5a0bc591}, ! Handle
  90.1-1999 Nonres B9 Roof IEAD,          ! Name
  ,                                       ! Surface Rendering Name
  {377ece19-ff1d-4347-81a6-3a908150c0f1}, ! Layer 1
  {8b25c690-1c8d-4d4a-a9d9-c0188ff41b84}, ! Layer 2
  {2a511820-d64d-4e7b-aa12-8fe7f3deb0ad}; ! Layer 3

OS:Material,
  {2a511820-d64d-4e7b-aa12-8fe7f3deb0ad}, ! Handle
  Metal Decking,                          ! Name
  MediumSmooth,                           ! Roughness
  0.001524,                               ! Thickness {m}
  45.006,                                 ! Conductivity {W/m-K}
  7680,                                   ! Density {kg/m3}
  418.4,                                  ! Specific Heat {J/kg-K}
  0.9,                                    ! Thermal Absorptance
  0.7,                                    ! Solar Absorptance
  0.3;                                    ! Visible Absorptance

