
OS:Version,
  {c003d0cd-d5f1-4628-bfc8-ef493a4942c2}, ! Handle
  0.9.3;                                  ! Version Identifier

OS:Construction,
  {60b67159-7890-40f6-af08-7804667e5b78}, ! Handle
  90.1-2004 Nonres 4B Ext Slab Unheated - 4in Slab without Carpet, ! Name
  ,                                       ! Surface Rendering Name
  {cd7b3e85-53ee-407e-ad4c-f95440bd31b4}; ! Layer 1

OS:Material,
  {cd7b3e85-53ee-407e-ad4c-f95440bd31b4}, ! Handle
  MAT-CC05 4 HW CONCRETE,                 ! Name
  Rough,                                  ! Roughness
  0.1016,                                 ! Thickness {m}
  1.311,                                  ! Conductivity {W/m-K}
  2240,                                   ! Density {kg/m3}
  836.8,                                  ! Specific Heat {J/kg-K}
  0.9,                                    ! Thermal Absorptance
  0.7,                                    ! Solar Absorptance
  0.7;                                    ! Visible Absorptance

OS:ComponentCost:LineItem,
  {642c5a45-9f08-4c20-b245-da31e1212f09}, ! Handle
  90.1-2004 Nonres 4B Ext Slab Unheated - 4in Slab without Carpet, ! Name
  ,                                       ! Type
  Construction,                           ! Line Item Type
  90.1-2004 Nonres 4B Ext Slab Unheated - 4in Slab without Carpet, ! Item Name
  ,                                       ! Object End Use Key
  ,                                       ! Quantity {dimensionless}
  45.52,                                  ! Material Cost {$}
  CostPerArea;                            ! Material Cost Units

OS:ComponentData,
  {c776e32e-c1a7-4938-ad51-99e991fcd5cb}, ! Handle
  Component Data 1,                       ! Name
  {5cc8fe28-06bc-4aef-808a-bd8f5d36508c}, ! UUID
  {d4bee676-ba2b-4b6a-806f-19524e1d9f48}, ! Version UUID
  1363981671,                             ! Creation Timestamp
  1363981671,                             ! Version Timestamp
  {60b67159-7890-40f6-af08-7804667e5b78}, ! Name of Object 1
  {cd7b3e85-53ee-407e-ad4c-f95440bd31b4}, ! Name of Object 2
  {642c5a45-9f08-4c20-b245-da31e1212f09}; ! Name of Object 3

