
OS:Version,
  {fd2c7bd4-3f4a-4670-acbd-f8890f8302bc}, ! Handle
  0.9.3;                                  ! Version Identifier

OS:ComponentCost:LineItem,
  {c9723aac-42d2-43a1-9d7d-8cbd5ad5d1ba}, ! Handle
  90.1-2004 Nonres 4B Ext Slab Unheated - 4in Slab without Carpet, ! Name
  ,                                       ! Type
  Construction,                           ! Line Item Type
  90.1-2004 Nonres 4B Ext Slab Unheated - 4in Slab without Carpet, ! Item Name
  ,                                       ! Object End Use Key
  ,                                       ! Quantity {dimensionless}
  45.52,                                  ! Material Cost {$}
  CostPerArea;                            ! Material Cost Units

OS:Material,
  {ccef151f-ec9f-4a96-a8f9-487a91af9c06}, ! Handle
  MAT-CC05 4 HW CONCRETE,                 ! Name
  Rough,                                  ! Roughness
  0.1016,                                 ! Thickness {m}
  1.311,                                  ! Conductivity {W/m-K}
  2240,                                   ! Density {kg/m3}
  836.8,                                  ! Specific Heat {J/kg-K}
  0.9,                                    ! Thermal Absorptance
  0.7,                                    ! Solar Absorptance
  0.7;                                    ! Visible Absorptance

OS:Construction,
  {bb1a1281-f284-4989-a3e3-45fc7b8a9d9d}, ! Handle
  90.1-2004 Nonres 4B Ext Slab Unheated - 4in Slab without Carpet, ! Name
  ,                                       ! Surface Rendering Name
  {ccef151f-ec9f-4a96-a8f9-487a91af9c06}; ! Layer 1

