
OS:Version,
  {0b1abd62-9252-4c99-9be6-279b4377f53d}, ! Handle
  0.9.3;                                  ! Version Identifier

OS:Material,
  {cc0b9a1f-390f-469a-886a-f0b1cdb47d62}, ! Handle
  MAT-CC05 8 HW CONCRETE,                 ! Name
  Rough,                                  ! Roughness
  0.20321,                                ! Thickness {m}
  1.311,                                  ! Conductivity {W/m-K}
  2240,                                   ! Density {kg/m3}
  836.8,                                  ! Specific Heat {J/kg-K}
  0.9,                                    ! Thermal Absorptance
  0.7,                                    ! Solar Absorptance
  0.7;                                    ! Visible Absorptance

OS:ComponentCost:LineItem,
  {71e4833b-09e1-4a9f-9a66-1debb33dff08}, ! Handle
  90.1-1999 Nonres B14 Ext Slab Unheated - 8in Slab with Carpet, ! Name
  ,                                       ! Type
  Construction,                           ! Line Item Type
  90.1-1999 Nonres B14 Ext Slab Unheated - 8in Slab with Carpet, ! Item Name
  ,                                       ! Object End Use Key
  ,                                       ! Quantity {dimensionless}
  45.52,                                  ! Material Cost {$}
  CostPerArea;                            ! Material Cost Units

OS:Construction,
  {7d10b868-ca1c-434d-b268-02f7660851d2}, ! Handle
  90.1-1999 Nonres B14 Ext Slab Unheated - 8in Slab with Carpet, ! Name
  ,                                       ! Surface Rendering Name
  {cc0b9a1f-390f-469a-886a-f0b1cdb47d62}, ! Layer 1
  {a452d0cb-03ef-4a61-a821-bce60e02768b}; ! Layer 2

OS:Material:NoMass,
  {a452d0cb-03ef-4a61-a821-bce60e02768b}, ! Handle
  CP02 CARPET PAD,                        ! Name
  VeryRough,                              ! Roughness
  0.21648,                                ! Thermal Resistance {m2-K/W}
  0.9,                                    ! Thermal Absorptance
  0.7,                                    ! Solar Absorptance
  0.8;                                    ! Visible Absorptance

