
OS:Version,
  {ce4d1e16-04d6-4863-b43b-275024e88001}, ! Handle
  0.9.3;                                  ! Version Identifier

OS:ComponentCost:LineItem,
  {b50f1beb-ad61-4312-973b-c57f44a8e4dc}, ! Handle
  90.1-2001 Nonres B24 Ext Slab Unheated - 4in Slab without Carpet, ! Name
  ,                                       ! Type
  Construction,                           ! Line Item Type
  90.1-2001 Nonres B24 Ext Slab Unheated - 4in Slab without Carpet, ! Item Name
  ,                                       ! Object End Use Key
  ,                                       ! Quantity {dimensionless}
  45.52,                                  ! Material Cost {$}
  CostPerArea;                            ! Material Cost Units

OS:Construction,
  {d653a915-75ba-47a6-ab0c-ef39e7a682ce}, ! Handle
  90.1-2001 Nonres B24 Ext Slab Unheated - 4in Slab without Carpet, ! Name
  ,                                       ! Surface Rendering Name
  {a1a7f56c-eba2-453a-a0e4-5175dd6702f1}; ! Layer 1

OS:Material,
  {a1a7f56c-eba2-453a-a0e4-5175dd6702f1}, ! Handle
  MAT-CC05 4 HW CONCRETE,                 ! Name
  Rough,                                  ! Roughness
  0.1016,                                 ! Thickness {m}
  1.311,                                  ! Conductivity {W/m-K}
  2240,                                   ! Density {kg/m3}
  836.8,                                  ! Specific Heat {J/kg-K}
  0.9,                                    ! Thermal Absorptance
  0.7,                                    ! Solar Absorptance
  0.7;                                    ! Visible Absorptance

