
OS:Version,
  {104b6179-59cb-4dbe-91d0-278e03365d42}, ! Handle
  0.9.3;                                  ! Version Identifier

OS:Material,
  {505e2a5f-00db-4a58-bacb-c3ad7a7864c4}, ! Handle
  Wall Insulation [1],                    ! Name
  MediumRough,                            ! Roughness
  0.0373223,                              ! Thickness {m}
  0.045,                                  ! Conductivity {W/m-K}
  265,                                    ! Density {kg/m3}
  836.8,                                  ! Specific Heat {J/kg-K}
  0.9,                                    ! Thermal Absorptance
  0.7,                                    ! Solar Absorptance
  0.7;                                    ! Visible Absorptance

OS:Material,
  {844e5fe9-03f3-4930-b1c1-5c4fa192c490}, ! Handle
  1/2IN Gypsum,                           ! Name
  Smooth,                                 ! Roughness
  0.01271,                                ! Thickness {m}
  0.16,                                   ! Conductivity {W/m-K}
  784.9,                                  ! Density {kg/m3}
  830,                                    ! Specific Heat {J/kg-K}
  0.9,                                    ! Thermal Absorptance
  0.92,                                   ! Solar Absorptance
  0.92;                                   ! Visible Absorptance

OS:ComponentCost:LineItem,
  {ee20f814-497c-4a2a-bb2b-4a10932b9c2a}, ! Handle
  90.1-1999 Res B5 Ext Wall Steel-Framed, ! Name
  ,                                       ! Type
  Construction,                           ! Line Item Type
  90.1-1999 Res B5 Ext Wall Steel-Framed, ! Item Name
  ,                                       ! Object End Use Key
  ,                                       ! Quantity {dimensionless}
  87.08,                                  ! Material Cost {$}
  CostPerArea;                            ! Material Cost Units

OS:Construction,
  {ff5986d0-457f-49cf-af43-393e77efa0c4}, ! Handle
  90.1-1999 Res B5 Ext Wall Steel-Framed, ! Name
  ,                                       ! Surface Rendering Name
  {b86a3dd0-a358-47b7-8b8a-d9eee74d2f28}, ! Layer 1
  {505e2a5f-00db-4a58-bacb-c3ad7a7864c4}, ! Layer 2
  {844e5fe9-03f3-4930-b1c1-5c4fa192c490}; ! Layer 3

OS:Material:NoMass,
  {b86a3dd0-a358-47b7-8b8a-d9eee74d2f28}, ! Handle
  MAT-SHEATH,                             ! Name
  Rough,                                  ! Roughness
  0.36256,                                ! Thermal Resistance {m2-K/W}
  0.9,                                    ! Thermal Absorptance
  0.7,                                    ! Solar Absorptance
  0.7;                                    ! Visible Absorptance

