
OS:Version,
  {5bf78fdb-153d-457a-8c85-71e75c82df87}, ! Handle
  0.9.3;                                  ! Version Identifier

OS:Construction,
  {8cfe2a21-315b-4de5-8ef7-365ea53867cd}, ! Handle
  90.1-1999 Res B5 Ext Wall Steel-Framed, ! Name
  ,                                       ! Surface Rendering Name
  {6a5f52cd-605b-4e77-9708-49fe942fff71}, ! Layer 1
  {45e0a2eb-b2c4-4f5e-9c47-38b89e8fa9e0}, ! Layer 2
  {ad7f8b9a-9bf2-4d77-9090-e6cbb4077923}; ! Layer 3

OS:Material:NoMass,
  {6a5f52cd-605b-4e77-9708-49fe942fff71}, ! Handle
  MAT-SHEATH,                             ! Name
  Rough,                                  ! Roughness
  0.36256,                                ! Thermal Resistance {m2-K/W}
  0.9,                                    ! Thermal Absorptance
  0.7,                                    ! Solar Absorptance
  0.7;                                    ! Visible Absorptance

OS:Material,
  {45e0a2eb-b2c4-4f5e-9c47-38b89e8fa9e0}, ! Handle
  Wall Insulation [1],                    ! Name
  MediumRough,                            ! Roughness
  0.0373223,                              ! Thickness {m}
  0.045,                                  ! Conductivity {W/m-K}
  265,                                    ! Density {kg/m3}
  836.8,                                  ! Specific Heat {J/kg-K}
  0.9,                                    ! Thermal Absorptance
  0.7,                                    ! Solar Absorptance
  0.7;                                    ! Visible Absorptance

OS:Material,
  {ad7f8b9a-9bf2-4d77-9090-e6cbb4077923}, ! Handle
  1/2IN Gypsum,                           ! Name
  Smooth,                                 ! Roughness
  0.01271,                                ! Thickness {m}
  0.16,                                   ! Conductivity {W/m-K}
  784.9,                                  ! Density {kg/m3}
  830,                                    ! Specific Heat {J/kg-K}
  0.9,                                    ! Thermal Absorptance
  0.92,                                   ! Solar Absorptance
  0.92;                                   ! Visible Absorptance

OS:ComponentCost:LineItem,
  {2719c266-ef1d-4c89-97f7-67c773da68a9}, ! Handle
  90.1-1999 Res B5 Ext Wall Steel-Framed, ! Name
  ,                                       ! Type
  Construction,                           ! Line Item Type
  90.1-1999 Res B5 Ext Wall Steel-Framed, ! Item Name
  ,                                       ! Object End Use Key
  ,                                       ! Quantity {dimensionless}
  87.08,                                  ! Material Cost {$}
  CostPerArea;                            ! Material Cost Units

OS:ComponentData,
  {1dc984a9-04eb-48c3-a782-5064b37d8717}, ! Handle
  Component Data 1,                       ! Name
  {b4671df9-3912-4f86-8b55-da4d4f36be16}, ! UUID
  {12a09572-35fc-4e45-8322-21e041ca767b}, ! Version UUID
  1363981182,                             ! Creation Timestamp
  1363981182,                             ! Version Timestamp
  {8cfe2a21-315b-4de5-8ef7-365ea53867cd}, ! Name of Object 1
  {6a5f52cd-605b-4e77-9708-49fe942fff71}, ! Name of Object 2
  {45e0a2eb-b2c4-4f5e-9c47-38b89e8fa9e0}, ! Name of Object 3
  {ad7f8b9a-9bf2-4d77-9090-e6cbb4077923}, ! Name of Object 4
  {2719c266-ef1d-4c89-97f7-67c773da68a9}; ! Name of Object 5

