
OS:Version,
  {f0dc6169-95d9-4f70-8d28-4f697d943be1}, ! Handle
  0.9.3;                                  ! Version Identifier

OS:Material,
  {3c2eee46-f5ed-4523-a979-258ac617553a}, ! Handle
  Wall Insulation [13],                   ! Name
  MediumRough,                            ! Roughness
  0.140713,                               ! Thickness {m}
  0.045,                                  ! Conductivity {W/m-K}
  265,                                    ! Density {kg/m3}
  836.8,                                  ! Specific Heat {J/kg-K}
  0.9,                                    ! Thermal Absorptance
  0.7,                                    ! Solar Absorptance
  0.7;                                    ! Visible Absorptance

OS:ComponentCost:LineItem,
  {8b69e975-7f8d-4980-9c96-c79d997d0377}, ! Handle
  90.1-1999 Nonres B25 Ext Wall Wood-Framed and Other, ! Name
  ,                                       ! Type
  Construction,                           ! Line Item Type
  90.1-1999 Nonres B25 Ext Wall Wood-Framed and Other, ! Item Name
  ,                                       ! Object End Use Key
  ,                                       ! Quantity {dimensionless}
  80.638,                                 ! Material Cost {$}
  CostPerArea;                            ! Material Cost Units

OS:Material,
  {64f3d7d0-3aa1-4657-8826-d3183c225da1}, ! Handle
  1/2IN Gypsum,                           ! Name
  Smooth,                                 ! Roughness
  0.01271,                                ! Thickness {m}
  0.16,                                   ! Conductivity {W/m-K}
  784.9,                                  ! Density {kg/m3}
  830,                                    ! Specific Heat {J/kg-K}
  0.9,                                    ! Thermal Absorptance
  0.92,                                   ! Solar Absorptance
  0.92;                                   ! Visible Absorptance

OS:Material,
  {7107beb6-900e-4e50-a687-f180d27108bb}, ! Handle
  Wood Siding,                            ! Name
  MediumSmooth,                           ! Roughness
  0.01,                                   ! Thickness {m}
  0.11,                                   ! Conductivity {W/m-K}
  544.62,                                 ! Density {kg/m3}
  1210,                                   ! Specific Heat {J/kg-K}
  0.9,                                    ! Thermal Absorptance
  0.78,                                   ! Solar Absorptance
  0.78;                                   ! Visible Absorptance

OS:Construction,
  {50483aae-7156-4ba1-971a-06a0e16294bf}, ! Handle
  90.1-1999 Nonres B25 Ext Wall Wood-Framed and Other, ! Name
  ,                                       ! Surface Rendering Name
  {7107beb6-900e-4e50-a687-f180d27108bb}, ! Layer 1
  {3c2eee46-f5ed-4523-a979-258ac617553a}, ! Layer 2
  {64f3d7d0-3aa1-4657-8826-d3183c225da1}; ! Layer 3

