
OS:Version,
  {38d09872-09b9-4ced-a7c2-b132f8e2126a}, ! Handle
  0.9.3;                                  ! Version Identifier

OS:Construction,
  {ae25b805-ae5b-4fcc-a844-74fb0031cacd}, ! Handle
  90.1-2004 Res 1A Ext Slab Unheated - 8in Slab without Carpet, ! Name
  ,                                       ! Surface Rendering Name
  {6095f6df-a150-4f12-bce5-139720678572}; ! Layer 1

OS:Material,
  {6095f6df-a150-4f12-bce5-139720678572}, ! Handle
  MAT-CC05 8 HW CONCRETE,                 ! Name
  Rough,                                  ! Roughness
  0.20321,                                ! Thickness {m}
  1.311,                                  ! Conductivity {W/m-K}
  2240,                                   ! Density {kg/m3}
  836.8,                                  ! Specific Heat {J/kg-K}
  0.9,                                    ! Thermal Absorptance
  0.7,                                    ! Solar Absorptance
  0.7;                                    ! Visible Absorptance

OS:ComponentCost:LineItem,
  {7df38916-5d71-448d-b47a-2963701c0f9f}, ! Handle
  90.1-2004 Res 1A Ext Slab Unheated - 8in Slab without Carpet, ! Name
  ,                                       ! Type
  Construction,                           ! Line Item Type
  90.1-2004 Res 1A Ext Slab Unheated - 8in Slab without Carpet, ! Item Name
  ,                                       ! Object End Use Key
  ,                                       ! Quantity {dimensionless}
  45.52,                                  ! Material Cost {$}
  CostPerArea;                            ! Material Cost Units

OS:ComponentData,
  {709dee84-3d23-4037-bd70-6fff85d6db41}, ! Handle
  Component Data 1,                       ! Name
  {fda2741d-f223-4561-864e-6caa3c567a06}, ! UUID
  {ebe2411a-c0a4-4629-a540-0f17667ceff1}, ! Version UUID
  1363981711,                             ! Creation Timestamp
  1363981711,                             ! Version Timestamp
  {ae25b805-ae5b-4fcc-a844-74fb0031cacd}, ! Name of Object 1
  {6095f6df-a150-4f12-bce5-139720678572}, ! Name of Object 2
  {7df38916-5d71-448d-b47a-2963701c0f9f}; ! Name of Object 3

