
OS:Version,
  {6e876db1-d722-4460-b3d2-9f15d7f7b66a}, ! Handle
  0.9.3;                                  ! Version Identifier

OS:Material,
  {0d7ec5cc-8fe7-4adb-b85f-d47beef3d111}, ! Handle
  Wall Insulation [56],                   ! Name
  MediumRough,                            ! Roughness
  0.205552,                               ! Thickness {m}
  0.045,                                  ! Conductivity {W/m-K}
  265,                                    ! Density {kg/m3}
  836.8,                                  ! Specific Heat {J/kg-K}
  0.9,                                    ! Thermal Absorptance
  0.7,                                    ! Solar Absorptance
  0.7;                                    ! Visible Absorptance

OS:Construction,
  {b6d86259-9e44-4b67-8665-8a6554c1b236}, ! Handle
  AEDG-SmOffice 8A Ext Wall Steel-Framed, ! Name
  ,                                       ! Surface Rendering Name
  {f4d8fec6-d671-4cf9-a026-7b2081134b9c}, ! Layer 1
  {0d7ec5cc-8fe7-4adb-b85f-d47beef3d111}, ! Layer 2
  {152c1937-a009-4496-b213-e7353daadc8c}; ! Layer 3

OS:Material:NoMass,
  {f4d8fec6-d671-4cf9-a026-7b2081134b9c}, ! Handle
  MAT-SHEATH,                             ! Name
  Rough,                                  ! Roughness
  0.36256,                                ! Thermal Resistance {m2-K/W}
  0.9,                                    ! Thermal Absorptance
  0.7,                                    ! Solar Absorptance
  0.7;                                    ! Visible Absorptance

OS:Material,
  {152c1937-a009-4496-b213-e7353daadc8c}, ! Handle
  1/2IN Gypsum,                           ! Name
  Smooth,                                 ! Roughness
  0.01271,                                ! Thickness {m}
  0.16,                                   ! Conductivity {W/m-K}
  784.9,                                  ! Density {kg/m3}
  830,                                    ! Specific Heat {J/kg-K}
  0.9,                                    ! Thermal Absorptance
  0.92,                                   ! Solar Absorptance
  0.92;                                   ! Visible Absorptance

OS:ComponentCost:LineItem,
  {39918e57-ede3-44be-9dc8-bd566215214b}, ! Handle
  AEDG-SmOffice 8A Ext Wall Steel-Framed, ! Name
  ,                                       ! Type
  Construction,                           ! Line Item Type
  AEDG-SmOffice 8A Ext Wall Steel-Framed, ! Item Name
  ,                                       ! Object End Use Key
  ,                                       ! Quantity {dimensionless}
  105.561,                                ! Material Cost {$}
  CostPerArea;                            ! Material Cost Units

