
OS:Version,
  {1c4f64f5-4ceb-4be1-860c-d912651c3574}, ! Handle
  0.9.3;                                  ! Version Identifier

OS:Construction,
  {e8e7a9b8-e933-4853-9558-4d4d827fd52f}, ! Handle
  AEDG-SmOffice 8A Ext Wall Steel-Framed, ! Name
  ,                                       ! Surface Rendering Name
  {a01437f3-61aa-4c36-9c19-12a38862be19}, ! Layer 1
  {81b1771b-063f-48e0-b75f-72211ea41747}, ! Layer 2
  {c5baec4d-8a98-4617-ba8a-e0a825ac5692}; ! Layer 3

OS:Material:NoMass,
  {a01437f3-61aa-4c36-9c19-12a38862be19}, ! Handle
  MAT-SHEATH,                             ! Name
  Rough,                                  ! Roughness
  0.36256,                                ! Thermal Resistance {m2-K/W}
  0.9,                                    ! Thermal Absorptance
  0.7,                                    ! Solar Absorptance
  0.7;                                    ! Visible Absorptance

OS:Material,
  {81b1771b-063f-48e0-b75f-72211ea41747}, ! Handle
  Wall Insulation [56],                   ! Name
  MediumRough,                            ! Roughness
  0.205552,                               ! Thickness {m}
  0.045,                                  ! Conductivity {W/m-K}
  265,                                    ! Density {kg/m3}
  836.8,                                  ! Specific Heat {J/kg-K}
  0.9,                                    ! Thermal Absorptance
  0.7,                                    ! Solar Absorptance
  0.7;                                    ! Visible Absorptance

OS:Material,
  {c5baec4d-8a98-4617-ba8a-e0a825ac5692}, ! Handle
  1/2IN Gypsum,                           ! Name
  Smooth,                                 ! Roughness
  0.01271,                                ! Thickness {m}
  0.16,                                   ! Conductivity {W/m-K}
  784.9,                                  ! Density {kg/m3}
  830,                                    ! Specific Heat {J/kg-K}
  0.9,                                    ! Thermal Absorptance
  0.92,                                   ! Solar Absorptance
  0.92;                                   ! Visible Absorptance

OS:ComponentCost:LineItem,
  {18b8ec98-4e12-40cc-9471-8f54ca26136c}, ! Handle
  AEDG-SmOffice 8A Ext Wall Steel-Framed, ! Name
  ,                                       ! Type
  Construction,                           ! Line Item Type
  AEDG-SmOffice 8A Ext Wall Steel-Framed, ! Item Name
  ,                                       ! Object End Use Key
  ,                                       ! Quantity {dimensionless}
  105.561,                                ! Material Cost {$}
  CostPerArea;                            ! Material Cost Units

OS:ComponentData,
  {ca2c2cc7-f504-425a-aeb9-951a590accfe}, ! Handle
  Component Data 1,                       ! Name
  {b2b36861-2ca2-4a32-8ff1-2599b5519710}, ! UUID
  {bd74a36a-61ec-4311-be4a-f14f82c5e7a8}, ! Version UUID
  1363981968,                             ! Creation Timestamp
  1363981968,                             ! Version Timestamp
  {e8e7a9b8-e933-4853-9558-4d4d827fd52f}, ! Name of Object 1
  {a01437f3-61aa-4c36-9c19-12a38862be19}, ! Name of Object 2
  {81b1771b-063f-48e0-b75f-72211ea41747}, ! Name of Object 3
  {c5baec4d-8a98-4617-ba8a-e0a825ac5692}, ! Name of Object 4
  {18b8ec98-4e12-40cc-9471-8f54ca26136c}; ! Name of Object 5

