
OS:Version,
  {a412a3e8-f2db-4ecd-8ec7-ea9cc6d1984a}, ! Handle
  0.9.3;                                  ! Version Identifier

OS:Construction,
  {f17003d7-6c19-4efa-a4b3-0cf5c978bc44}, ! Handle
  90.1-2004 Res 3A Window Fixed,          ! Name
  ,                                       ! Surface Rendering Name
  {b09d5ac4-2687-42ff-95bf-872702a57ba4}; ! Layer 1

OS:WindowMaterial:Glazing,
  {b09d5ac4-2687-42ff-95bf-872702a57ba4}, ! Handle
  Theoretical Glass [136],                ! Name
  SpectralAverage,                        ! Optical Data Type
  ,                                       ! Window Glass Spectral Data Set Name
  0.003,                                  ! Thickness {m}
  0.255355,                               ! Solar Transmittance at Normal Incidence
  0.694645,                               ! Front Side Solar Reflectance at Normal Incidence
  0.694645,                               ! Back Side Solar Reflectance at Normal Incidence
  0.330719,                               ! Visible Transmittance at Normal Incidence
  0.619281,                               ! Front Side Visible Reflectance at Normal Incidence
  0.619281,                               ! Back Side Visible Reflectance at Normal Incidence
  0,                                      ! Infrared Transmittance at Normal Incidence
  0.9,                                    ! Front Side Infrared Hemispherical Emissivity
  0.9,                                    ! Back Side Infrared Hemispherical Emissivity
  0.0134755;                              ! Conductivity {W/m-K}

OS:ComponentCost:LineItem,
  {276ed107-26a8-418d-a6e4-6f280a481ea8}, ! Handle
  90.1-2004 Res 3A Window Fixed,          ! Name
  ,                                       ! Type
  Construction,                           ! Line Item Type
  90.1-2004 Res 3A Window Fixed,          ! Item Name
  ,                                       ! Object End Use Key
  ,                                       ! Quantity {dimensionless}
  560.656,                                ! Material Cost {$}
  CostPerArea;                            ! Material Cost Units

