
OS:Version,
  {b84f07f8-c303-4914-b883-4acabaaa0525}, ! Handle
  0.9.3;                                  ! Version Identifier

OS:Construction,
  {df70ece9-0dff-41c0-8a78-ea93f9c62ad4}, ! Handle
  Title 24-2008 Nonres 10 Skylight without Curb, ! Name
  ,                                       ! Surface Rendering Name
  {5ad5a5ac-4a5a-4a8c-a8bb-5c3afdabeef9}; ! Layer 1

OS:WindowMaterial:Glazing,
  {5ad5a5ac-4a5a-4a8c-a8bb-5c3afdabeef9}, ! Handle
  Theoretical Glass [667],                ! Name
  SpectralAverage,                        ! Optical Data Type
  ,                                       ! Window Glass Spectral Data Set Name
  0.003,                                  ! Thickness {m}
  0.351757,                               ! Solar Transmittance at Normal Incidence
  0.598243,                               ! Front Side Solar Reflectance at Normal Incidence
  0.598243,                               ! Back Side Solar Reflectance at Normal Incidence
  0.360158,                               ! Visible Transmittance at Normal Incidence
  0.589842,                               ! Front Side Visible Reflectance at Normal Incidence
  0.589842,                               ! Back Side Visible Reflectance at Normal Incidence
  0,                                      ! Infrared Transmittance at Normal Incidence
  0.84,                                   ! Front Side Infrared Hemispherical Emissivity
  0.84,                                   ! Back Side Infrared Hemispherical Emissivity
  0.0305466;                              ! Conductivity {W/m-K}

OS:ComponentCost:LineItem,
  {6c52fa0a-d213-4aee-98e5-484cb2d99aa7}, ! Handle
  Title 24-2008 Nonres 10 Skylight without Curb, ! Name
  ,                                       ! Type
  Construction,                           ! Line Item Type
  Title 24-2008 Nonres 10 Skylight without Curb, ! Item Name
  ,                                       ! Object End Use Key
  ,                                       ! Quantity {dimensionless}
  529.667,                                ! Material Cost {$}
  CostPerArea;                            ! Material Cost Units

OS:ComponentData,
  {0eb16368-648a-4774-a9b9-dd1546248ecb}, ! Handle
  Component Data 1,                       ! Name
  {28ae80a0-0169-4015-b1f3-0d87eb511094}, ! UUID
  {65f5da48-6d41-4166-8dc3-367477d8e92f}, ! Version UUID
  1363982068,                             ! Creation Timestamp
  1363982068,                             ! Version Timestamp
  {df70ece9-0dff-41c0-8a78-ea93f9c62ad4}, ! Name of Object 1
  {5ad5a5ac-4a5a-4a8c-a8bb-5c3afdabeef9}, ! Name of Object 2
  {6c52fa0a-d213-4aee-98e5-484cb2d99aa7}; ! Name of Object 3

