
OS:Version,
  {c690887e-8367-4e6a-aaeb-d6edee7e0cce}, ! Handle
  0.9.3;                                  ! Version Identifier

OS:Material,
  {4e6e188c-e353-4b1a-bf1d-04628b3ae971}, ! Handle
  1/2IN Gypsum,                           ! Name
  Smooth,                                 ! Roughness
  0.01271,                                ! Thickness {m}
  0.16,                                   ! Conductivity {W/m-K}
  784.9,                                  ! Density {kg/m3}
  830,                                    ! Specific Heat {J/kg-K}
  0.9,                                    ! Thermal Absorptance
  0.92,                                   ! Solar Absorptance
  0.92;                                   ! Visible Absorptance

OS:ComponentCost:LineItem,
  {01d08ce7-815f-45ff-976c-b53d9e3b924f}, ! Handle
  90.1-1999 Nonres B25 Ext Wall Metal Building, ! Name
  ,                                       ! Type
  Construction,                           ! Line Item Type
  90.1-1999 Nonres B25 Ext Wall Metal Building, ! Item Name
  ,                                       ! Object End Use Key
  ,                                       ! Quantity {dimensionless}
  107.698,                                ! Material Cost {$}
  CostPerArea;                            ! Material Cost Units

OS:Material,
  {2db8891d-80f2-4e91-a8b5-b62207d75d3c}, ! Handle
  Metal Siding,                           ! Name
  Smooth,                                 ! Roughness
  0.0015,                                 ! Thickness {m}
  44.96,                                  ! Conductivity {W/m-K}
  7688.86,                                ! Density {kg/m3}
  410,                                    ! Specific Heat {J/kg-K}
  0.9,                                    ! Thermal Absorptance
  0.2,                                    ! Solar Absorptance
  0.2;                                    ! Visible Absorptance

OS:Material,
  {236724d3-7eb2-4d19-9a9f-9f367a8d5aff}, ! Handle
  Wall Insulation [9],                    ! Name
  MediumRough,                            ! Roughness
  0.128642,                               ! Thickness {m}
  0.045,                                  ! Conductivity {W/m-K}
  265,                                    ! Density {kg/m3}
  836.8,                                  ! Specific Heat {J/kg-K}
  0.9,                                    ! Thermal Absorptance
  0.7,                                    ! Solar Absorptance
  0.7;                                    ! Visible Absorptance

OS:Construction,
  {b8525f02-a319-4eb3-88b2-095cc19d21f2}, ! Handle
  90.1-1999 Nonres B25 Ext Wall Metal Building, ! Name
  ,                                       ! Surface Rendering Name
  {2db8891d-80f2-4e91-a8b5-b62207d75d3c}, ! Layer 1
  {236724d3-7eb2-4d19-9a9f-9f367a8d5aff}, ! Layer 2
  {4e6e188c-e353-4b1a-bf1d-04628b3ae971}; ! Layer 3

