
OS:Version,
  {e319eff3-9687-4e99-9474-e4c448e76a5e}, ! Handle
  0.9.3;                                  ! Version Identifier

OS:Construction,
  {110a51aa-f9b8-4efc-98e0-4a3fa3072a0e}, ! Handle
  90.1-1999 Nonres B25 Ext Wall Metal Building, ! Name
  ,                                       ! Surface Rendering Name
  {f7fff8de-c886-423f-9270-d53e2caa9a66}, ! Layer 1
  {57841dfb-ccb2-4416-9d96-3cae96941397}, ! Layer 2
  {d59c86ce-238b-4a5e-b847-93f2fbf8ac13}; ! Layer 3

OS:Material,
  {f7fff8de-c886-423f-9270-d53e2caa9a66}, ! Handle
  Metal Siding,                           ! Name
  Smooth,                                 ! Roughness
  0.0015,                                 ! Thickness {m}
  44.96,                                  ! Conductivity {W/m-K}
  7688.86,                                ! Density {kg/m3}
  410,                                    ! Specific Heat {J/kg-K}
  0.9,                                    ! Thermal Absorptance
  0.2,                                    ! Solar Absorptance
  0.2;                                    ! Visible Absorptance

OS:Material,
  {57841dfb-ccb2-4416-9d96-3cae96941397}, ! Handle
  Wall Insulation [9],                    ! Name
  MediumRough,                            ! Roughness
  0.128642,                               ! Thickness {m}
  0.045,                                  ! Conductivity {W/m-K}
  265,                                    ! Density {kg/m3}
  836.8,                                  ! Specific Heat {J/kg-K}
  0.9,                                    ! Thermal Absorptance
  0.7,                                    ! Solar Absorptance
  0.7;                                    ! Visible Absorptance

OS:Material,
  {d59c86ce-238b-4a5e-b847-93f2fbf8ac13}, ! Handle
  1/2IN Gypsum,                           ! Name
  Smooth,                                 ! Roughness
  0.01271,                                ! Thickness {m}
  0.16,                                   ! Conductivity {W/m-K}
  784.9,                                  ! Density {kg/m3}
  830,                                    ! Specific Heat {J/kg-K}
  0.9,                                    ! Thermal Absorptance
  0.92,                                   ! Solar Absorptance
  0.92;                                   ! Visible Absorptance

OS:ComponentCost:LineItem,
  {bbfa2c1b-8b6c-4b94-827c-339ec087a27f}, ! Handle
  90.1-1999 Nonres B25 Ext Wall Metal Building, ! Name
  ,                                       ! Type
  Construction,                           ! Line Item Type
  90.1-1999 Nonres B25 Ext Wall Metal Building, ! Item Name
  ,                                       ! Object End Use Key
  ,                                       ! Quantity {dimensionless}
  107.698,                                ! Material Cost {$}
  CostPerArea;                            ! Material Cost Units

OS:ComponentData,
  {be62539f-851d-4c72-9880-8e67292ba7dc}, ! Handle
  Component Data 1,                       ! Name
  {3b9a372b-a72e-4d08-8d3e-7351bfb38a85}, ! UUID
  {a66ddfe1-b3ac-4eb2-aea7-3c1f6de28528}, ! Version UUID
  1363981153,                             ! Creation Timestamp
  1363981153,                             ! Version Timestamp
  {110a51aa-f9b8-4efc-98e0-4a3fa3072a0e}, ! Name of Object 1
  {f7fff8de-c886-423f-9270-d53e2caa9a66}, ! Name of Object 2
  {57841dfb-ccb2-4416-9d96-3cae96941397}, ! Name of Object 3
  {d59c86ce-238b-4a5e-b847-93f2fbf8ac13}, ! Name of Object 4
  {bbfa2c1b-8b6c-4b94-827c-339ec087a27f}; ! Name of Object 5

