
OS:Version,
  {76d09669-3d53-4b4b-814b-fbf8cffa3abf}, ! Handle
  0.9.3;                                  ! Version Identifier

OS:Construction,
  {0d869d18-0a8e-449f-b648-e95fd4e6de1a}, ! Handle
  90.1-2004 Nonres 7A Exposed Floor Mass, ! Name
  ,                                       ! Surface Rendering Name
  {a4544b8c-7d7c-422d-9e8b-d6a893c53e59}, ! Layer 1
  {efcaa0ef-23aa-445e-a45f-cec65c190985}, ! Layer 2
  {e9032a20-0371-4b70-a285-756a2737ebd7}; ! Layer 3

OS:Material,
  {a4544b8c-7d7c-422d-9e8b-d6a893c53e59}, ! Handle
  Floor Insulation [2],                   ! Name
  MediumRough,                            ! Roughness
  0.0635689,                              ! Thickness {m}
  0.045,                                  ! Conductivity {W/m-K}
  265,                                    ! Density {kg/m3}
  836.8,                                  ! Specific Heat {J/kg-K}
  0.9,                                    ! Thermal Absorptance
  0.7,                                    ! Solar Absorptance
  0.7;                                    ! Visible Absorptance

OS:Material,
  {efcaa0ef-23aa-445e-a45f-cec65c190985}, ! Handle
  MAT-CC05 8 HW CONCRETE,                 ! Name
  Rough,                                  ! Roughness
  0.20321,                                ! Thickness {m}
  1.311,                                  ! Conductivity {W/m-K}
  2240,                                   ! Density {kg/m3}
  836.8,                                  ! Specific Heat {J/kg-K}
  0.9,                                    ! Thermal Absorptance
  0.7,                                    ! Solar Absorptance
  0.7;                                    ! Visible Absorptance

OS:Material:NoMass,
  {e9032a20-0371-4b70-a285-756a2737ebd7}, ! Handle
  CP02 CARPET PAD,                        ! Name
  VeryRough,                              ! Roughness
  0.21648,                                ! Thermal Resistance {m2-K/W}
  0.9,                                    ! Thermal Absorptance
  0.7,                                    ! Solar Absorptance
  0.8;                                    ! Visible Absorptance

OS:ComponentCost:LineItem,
  {54786c72-c70e-4b64-9fc4-358e81cc02c3}, ! Handle
  90.1-2004 Nonres 7A Exposed Floor Mass, ! Name
  ,                                       ! Type
  Construction,                           ! Line Item Type
  90.1-2004 Nonres 7A Exposed Floor Mass, ! Item Name
  ,                                       ! Object End Use Key
  ,                                       ! Quantity {dimensionless}
  49.612,                                 ! Material Cost {$}
  CostPerArea;                            ! Material Cost Units

OS:ComponentData,
  {b72defcc-89e8-4295-9dd0-d74986142638}, ! Handle
  Component Data 1,                       ! Name
  {23638b62-d73b-4911-9943-c350d2bc159f}, ! UUID
  {abb429dc-cc24-4022-9df2-fe5431b0c245}, ! Version UUID
  1363981696,                             ! Creation Timestamp
  1363981696,                             ! Version Timestamp
  {0d869d18-0a8e-449f-b648-e95fd4e6de1a}, ! Name of Object 1
  {a4544b8c-7d7c-422d-9e8b-d6a893c53e59}, ! Name of Object 2
  {efcaa0ef-23aa-445e-a45f-cec65c190985}, ! Name of Object 3
  {e9032a20-0371-4b70-a285-756a2737ebd7}, ! Name of Object 4
  {54786c72-c70e-4b64-9fc4-358e81cc02c3}; ! Name of Object 5

