
OS:Version,
  {4d4780e5-5154-4696-ab7c-d0b9bec466bf}, ! Handle
  0.9.3;                                  ! Version Identifier

OS:Construction,
  {f2913b65-04a6-4e22-8498-f7a5fb083398}, ! Handle
  90.1-2004 Nonres 7A Exposed Floor Mass, ! Name
  ,                                       ! Surface Rendering Name
  {8dbd426b-e591-431e-9e7c-ec28daba5d2b}, ! Layer 1
  {88a2a0ee-0c87-412e-9fd5-1ba6610bb10c}, ! Layer 2
  {2c9cc4d9-1867-48a1-869d-2e7aa8c18929}; ! Layer 3

OS:Material,
  {8dbd426b-e591-431e-9e7c-ec28daba5d2b}, ! Handle
  Floor Insulation [2],                   ! Name
  MediumRough,                            ! Roughness
  0.0635689,                              ! Thickness {m}
  0.045,                                  ! Conductivity {W/m-K}
  265,                                    ! Density {kg/m3}
  836.8,                                  ! Specific Heat {J/kg-K}
  0.9,                                    ! Thermal Absorptance
  0.7,                                    ! Solar Absorptance
  0.7;                                    ! Visible Absorptance

OS:Material,
  {88a2a0ee-0c87-412e-9fd5-1ba6610bb10c}, ! Handle
  MAT-CC05 8 HW CONCRETE,                 ! Name
  Rough,                                  ! Roughness
  0.20321,                                ! Thickness {m}
  1.311,                                  ! Conductivity {W/m-K}
  2240,                                   ! Density {kg/m3}
  836.8,                                  ! Specific Heat {J/kg-K}
  0.9,                                    ! Thermal Absorptance
  0.7,                                    ! Solar Absorptance
  0.7;                                    ! Visible Absorptance

OS:Material:NoMass,
  {2c9cc4d9-1867-48a1-869d-2e7aa8c18929}, ! Handle
  CP02 CARPET PAD,                        ! Name
  VeryRough,                              ! Roughness
  0.21648,                                ! Thermal Resistance {m2-K/W}
  0.9,                                    ! Thermal Absorptance
  0.7,                                    ! Solar Absorptance
  0.8;                                    ! Visible Absorptance

OS:ComponentCost:LineItem,
  {6c3d2f22-e18b-4c15-8f54-1cfbef97531a}, ! Handle
  90.1-2004 Nonres 7A Exposed Floor Mass, ! Name
  ,                                       ! Type
  Construction,                           ! Line Item Type
  90.1-2004 Nonres 7A Exposed Floor Mass, ! Item Name
  ,                                       ! Object End Use Key
  ,                                       ! Quantity {dimensionless}
  49.612,                                 ! Material Cost {$}
  CostPerArea;                            ! Material Cost Units

