
OS:Version,
  {884813ac-a438-409f-ad9b-21ddf695a026}, ! Handle
  0.9.3;                                  ! Version Identifier

OS:Material,
  {31ce29af-e03a-42d1-905d-674d5786b30c}, ! Handle
  AtticFloor Insulation [48],             ! Name
  MediumRough,                            ! Roughness
  0.160449,                               ! Thickness {m}
  0.049,                                  ! Conductivity {W/m-K}
  265,                                    ! Density {kg/m3}
  836.8,                                  ! Specific Heat {J/kg-K}
  0.9,                                    ! Thermal Absorptance
  0.7,                                    ! Solar Absorptance
  0.7;                                    ! Visible Absorptance

OS:Material,
  {f7b45dce-622a-48d3-b5b1-a68f6064a193}, ! Handle
  1/2IN Gypsum Bottom,                    ! Name
  Smooth,                                 ! Roughness
  0.01271,                                ! Thickness {m}
  0.16,                                   ! Conductivity {W/m-K}
  784.9,                                  ! Density {kg/m3}
  830,                                    ! Specific Heat {J/kg-K}
  0.9,                                    ! Thermal Absorptance
  0.92,                                   ! Solar Absorptance
  0.92;                                   ! Visible Absorptance

OS:Construction,
  {ec445531-afbb-45a4-903d-b0a450c7969d}, ! Handle
  Title 24-2008 Nonres 5 Attic Floor,     ! Name
  ,                                       ! Surface Rendering Name
  {907c2cd6-57a7-4414-9405-eeddaf215d34}, ! Layer 1
  {31ce29af-e03a-42d1-905d-674d5786b30c}, ! Layer 2
  {f7b45dce-622a-48d3-b5b1-a68f6064a193}; ! Layer 3

OS:Material,
  {907c2cd6-57a7-4414-9405-eeddaf215d34}, ! Handle
  1/2IN Gypsum Top,                       ! Name
  Smooth,                                 ! Roughness
  0.01271,                                ! Thickness {m}
  0.16,                                   ! Conductivity {W/m-K}
  784.9,                                  ! Density {kg/m3}
  830,                                    ! Specific Heat {J/kg-K}
  0.9,                                    ! Thermal Absorptance
  0.92,                                   ! Solar Absorptance
  0.92;                                   ! Visible Absorptance

OS:ComponentCost:LineItem,
  {f6c5735b-c8fe-4b63-966b-3f900e9897be}, ! Handle
  Title 24-2008 Nonres 5 Attic Floor,     ! Name
  ,                                       ! Type
  Construction,                           ! Line Item Type
  Title 24-2008 Nonres 5 Attic Floor,     ! Item Name
  ,                                       ! Object End Use Key
  ,                                       ! Quantity {dimensionless}
  32.378,                                 ! Material Cost {$}
  CostPerArea;                            ! Material Cost Units

