
OS:Version,
  {e87816a6-0362-4a64-95cd-7795f0f8ed87}, ! Handle
  0.9.3;                                  ! Version Identifier

OS:Construction,
  {a4de7270-f4fd-4d99-9b8b-1156bab1def4}, ! Handle
  Title 24-2008 Nonres 5 Attic Floor,     ! Name
  ,                                       ! Surface Rendering Name
  {1fd23790-198e-4294-8f54-ea03187bb1ee}, ! Layer 1
  {dd0654b6-18cc-4ebd-b62b-17a5dfc87d46}, ! Layer 2
  {49237c9f-0f16-435a-90fd-17825605f82b}; ! Layer 3

OS:Material,
  {1fd23790-198e-4294-8f54-ea03187bb1ee}, ! Handle
  1/2IN Gypsum Top,                       ! Name
  Smooth,                                 ! Roughness
  0.01271,                                ! Thickness {m}
  0.16,                                   ! Conductivity {W/m-K}
  784.9,                                  ! Density {kg/m3}
  830,                                    ! Specific Heat {J/kg-K}
  0.9,                                    ! Thermal Absorptance
  0.92,                                   ! Solar Absorptance
  0.92;                                   ! Visible Absorptance

OS:Material,
  {dd0654b6-18cc-4ebd-b62b-17a5dfc87d46}, ! Handle
  AtticFloor Insulation [48],             ! Name
  MediumRough,                            ! Roughness
  0.160449,                               ! Thickness {m}
  0.049,                                  ! Conductivity {W/m-K}
  265,                                    ! Density {kg/m3}
  836.8,                                  ! Specific Heat {J/kg-K}
  0.9,                                    ! Thermal Absorptance
  0.7,                                    ! Solar Absorptance
  0.7;                                    ! Visible Absorptance

OS:Material,
  {49237c9f-0f16-435a-90fd-17825605f82b}, ! Handle
  1/2IN Gypsum Bottom,                    ! Name
  Smooth,                                 ! Roughness
  0.01271,                                ! Thickness {m}
  0.16,                                   ! Conductivity {W/m-K}
  784.9,                                  ! Density {kg/m3}
  830,                                    ! Specific Heat {J/kg-K}
  0.9,                                    ! Thermal Absorptance
  0.92,                                   ! Solar Absorptance
  0.92;                                   ! Visible Absorptance

OS:ComponentCost:LineItem,
  {385879a8-dec2-4c9a-8279-3816b04bdf1a}, ! Handle
  Title 24-2008 Nonres 5 Attic Floor,     ! Name
  ,                                       ! Type
  Construction,                           ! Line Item Type
  Title 24-2008 Nonres 5 Attic Floor,     ! Item Name
  ,                                       ! Object End Use Key
  ,                                       ! Quantity {dimensionless}
  32.378,                                 ! Material Cost {$}
  CostPerArea;                            ! Material Cost Units

OS:ComponentData,
  {a67f773e-9181-450e-ac41-8a9e38cc9523}, ! Handle
  Component Data 1,                       ! Name
  {57a3f211-4c17-4687-af6b-2e0c43562f0b}, ! UUID
  {a61e7b98-32cf-49b7-a876-27dabc684aff}, ! Version UUID
  1363982018,                             ! Creation Timestamp
  1363982018,                             ! Version Timestamp
  {a4de7270-f4fd-4d99-9b8b-1156bab1def4}, ! Name of Object 1
  {1fd23790-198e-4294-8f54-ea03187bb1ee}, ! Name of Object 2
  {dd0654b6-18cc-4ebd-b62b-17a5dfc87d46}, ! Name of Object 3
  {49237c9f-0f16-435a-90fd-17825605f82b}, ! Name of Object 4
  {385879a8-dec2-4c9a-8279-3816b04bdf1a}; ! Name of Object 5

