
OS:Version,
  {afb8ca36-6b4e-4614-a334-5c846dd888f9}, ! Handle
  0.9.3;                                  ! Version Identifier

OS:Material,
  {23f01471-4709-41ba-8fb1-cb5bb6c99307}, ! Handle
  Metal Roofing,                          ! Name
  MediumSmooth,                           ! Roughness
  0.001524,                               ! Thickness {m}
  45.006,                                 ! Conductivity {W/m-K}
  7680,                                   ! Density {kg/m3}
  418.4,                                  ! Specific Heat {J/kg-K}
  0.9,                                    ! Thermal Absorptance
  0.7,                                    ! Solar Absorptance
  0.3;                                    ! Visible Absorptance

OS:Construction,
  {33417967-a68f-4975-ac7f-9819d0ff5b24}, ! Handle
  90.1-2001 Nonres B3 Roof Metal Building, ! Name
  ,                                       ! Surface Rendering Name
  {23f01471-4709-41ba-8fb1-cb5bb6c99307}, ! Layer 1
  {9d5c284b-b305-4b18-8f42-70eab0084d07}; ! Layer 2

OS:Material,
  {9d5c284b-b305-4b18-8f42-70eab0084d07}, ! Handle
  Roof Insulation [1],                    ! Name
  MediumRough,                            ! Roughness
  0.123533,                               ! Thickness {m}
  0.049,                                  ! Conductivity {W/m-K}
  265,                                    ! Density {kg/m3}
  836.8,                                  ! Specific Heat {J/kg-K}
  0.9,                                    ! Thermal Absorptance
  0.7,                                    ! Solar Absorptance
  0.7;                                    ! Visible Absorptance

OS:ComponentCost:LineItem,
  {35fe905e-8da1-4f45-9e9e-9f9decdb4c85}, ! Handle
  90.1-2001 Nonres B3 Roof Metal Building, ! Name
  ,                                       ! Type
  Construction,                           ! Line Item Type
  90.1-2001 Nonres B3 Roof Metal Building, ! Item Name
  ,                                       ! Object End Use Key
  ,                                       ! Quantity {dimensionless}
  38.206,                                 ! Material Cost {$}
  CostPerArea;                            ! Material Cost Units

