
OS:Version,
  {fba61966-18e7-49e6-b560-2b2f6d8b9b74}, ! Handle
  0.9.3;                                  ! Version Identifier

OS:Construction,
  {85ff26b6-ac49-4436-a16f-4ce0669821a3}, ! Handle
  90.1 Windows Window Fixed 2444 Brk-ClrMpr-Ins-ClrSue, ! Name
  ,                                       ! Surface Rendering Name
  {bfc572d3-8518-4b18-9bad-397e557f8235}; ! Layer 1

OS:WindowMaterial:Glazing,
  {bfc572d3-8518-4b18-9bad-397e557f8235}, ! Handle
  Theoretical Glass [446],                ! Name
  SpectralAverage,                        ! Optical Data Type
  ,                                       ! Window Glass Spectral Data Set Name
  0.003,                                  ! Thickness {m}
  0.305712,                               ! Solar Transmittance at Normal Incidence
  0.644288,                               ! Front Side Solar Reflectance at Normal Incidence
  0.644288,                               ! Back Side Solar Reflectance at Normal Incidence
  0.370537,                               ! Visible Transmittance at Normal Incidence
  0.579463,                               ! Front Side Visible Reflectance at Normal Incidence
  0.579463,                               ! Back Side Visible Reflectance at Normal Incidence
  0,                                      ! Infrared Transmittance at Normal Incidence
  0.9,                                    ! Front Side Infrared Hemispherical Emissivity
  0.9,                                    ! Back Side Infrared Hemispherical Emissivity
  0.0116204;                              ! Conductivity {W/m-K}

OS:ComponentCost:LineItem,
  {7a06a599-1a95-42b1-9784-a8840f25ab12}, ! Handle
  90.1 Windows Window Fixed 2444 Brk-ClrMpr-Ins-ClrSue, ! Name
  ,                                       ! Type
  Construction,                           ! Line Item Type
  90.1 Windows Window Fixed 2444 Brk-ClrMpr-Ins-ClrSue, ! Item Name
  ,                                       ! Object End Use Key
  ,                                       ! Quantity {dimensionless}
  0,                                      ! Material Cost {$}
  CostPerArea;                            ! Material Cost Units

