
OS:Version,
  {692d8f12-16a8-4886-8f5c-5dd9705fa3a6}, ! Handle
  0.9.3;                                  ! Version Identifier

OS:Construction,
  {7c9c7dc9-0b9f-4bd3-b00a-7adb70a5a20e}, ! Handle
  Title 24-2008 Nonres 7 Attic Floor,     ! Name
  ,                                       ! Surface Rendering Name
  {8fa67965-3ed6-4dd6-b14c-b5d40e5c8cb8}, ! Layer 1
  {ba828a77-5b35-4e57-965f-f1a8598ee3c6}, ! Layer 2
  {1bd1e949-7eec-4586-ba63-218fa173debe}; ! Layer 3

OS:Material,
  {8fa67965-3ed6-4dd6-b14c-b5d40e5c8cb8}, ! Handle
  1/2IN Gypsum Top,                       ! Name
  Smooth,                                 ! Roughness
  0.01271,                                ! Thickness {m}
  0.16,                                   ! Conductivity {W/m-K}
  784.9,                                  ! Density {kg/m3}
  830,                                    ! Specific Heat {J/kg-K}
  0.9,                                    ! Thermal Absorptance
  0.92,                                   ! Solar Absorptance
  0.92;                                   ! Visible Absorptance

OS:Material,
  {ba828a77-5b35-4e57-965f-f1a8598ee3c6}, ! Handle
  AtticFloor Insulation [51],             ! Name
  MediumRough,                            ! Roughness
  0.113285,                               ! Thickness {m}
  0.049,                                  ! Conductivity {W/m-K}
  265,                                    ! Density {kg/m3}
  836.8,                                  ! Specific Heat {J/kg-K}
  0.9,                                    ! Thermal Absorptance
  0.7,                                    ! Solar Absorptance
  0.7;                                    ! Visible Absorptance

OS:Material,
  {1bd1e949-7eec-4586-ba63-218fa173debe}, ! Handle
  1/2IN Gypsum Bottom,                    ! Name
  Smooth,                                 ! Roughness
  0.01271,                                ! Thickness {m}
  0.16,                                   ! Conductivity {W/m-K}
  784.9,                                  ! Density {kg/m3}
  830,                                    ! Specific Heat {J/kg-K}
  0.9,                                    ! Thermal Absorptance
  0.92,                                   ! Solar Absorptance
  0.92;                                   ! Visible Absorptance

OS:ComponentCost:LineItem,
  {450dbc59-3309-48a7-8823-c5359db54cca}, ! Handle
  Title 24-2008 Nonres 7 Attic Floor,     ! Name
  ,                                       ! Type
  Construction,                           ! Line Item Type
  Title 24-2008 Nonres 7 Attic Floor,     ! Item Name
  ,                                       ! Object End Use Key
  ,                                       ! Quantity {dimensionless}
  31.629,                                 ! Material Cost {$}
  CostPerArea;                            ! Material Cost Units

