
OS:Version,
  {7338dd85-1eb2-47b2-b4d0-d168bf4e04a8}, !- Handle
  1.1.0;                                  !- Version Identifier

OS:Construction,
  {08f0d402-a449-481f-a30a-d190a0f717f8}, !- Handle
  Trp LoE Film (55) Clr 6mm/13m Air,      !- Name
  ,                                       !- Surface Rendering Name
  {98ec4742-4bff-444d-9326-cb09c7595554}, !- Layer 1
  {99cb77cf-c5e4-4d7b-8095-8b9ef0d7b9ee}, !- Layer 2
  {34915cf3-9dbe-4b00-bbd9-0b4a8bb1f653}, !- Layer 3
  {99cb77cf-c5e4-4d7b-8095-8b9ef0d7b9ee}, !- Layer 4
  {98ec4742-4bff-444d-9326-cb09c7595554}; !- Layer 5

OS:WindowMaterial:Glazing,
  {98ec4742-4bff-444d-9326-cb09c7595554}, !- Handle
  CLEAR 6MM,                              !- Name
  SpectralAverage,                        !- Optical Data Type
  ,                                       !- Window Glass Spectral Data Set Name
  0.006,                                  !- Thickness {m}
  0.775,                                  !- Solar Transmittance at Normal Incidence
  0.071,                                  !- Front Side Solar Reflectance at Normal Incidence
  0.071,                                  !- Back Side Solar Reflectance at Normal Incidence
  0.881,                                  !- Visible Transmittance at Normal Incidence
  0.08,                                   !- Front Side Visible Reflectance at Normal Incidence
  0.08,                                   !- Back Side Visible Reflectance at Normal Incidence
  0,                                      !- Infrared Transmittance at Normal Incidence
  0.84,                                   !- Front Side Infrared Hemispherical Emissivity
  0.84,                                   !- Back Side Infrared Hemispherical Emissivity
  0.9;                                    !- Conductivity {W/m-K}

OS:WindowMaterial:Gas,
  {99cb77cf-c5e4-4d7b-8095-8b9ef0d7b9ee}, !- Handle
  AIR 13MM,                               !- Name
  Air,                                    !- Gas Type
  0.0127;                                 !- Thickness {m}

OS:WindowMaterial:Glazing,
  {34915cf3-9dbe-4b00-bbd9-0b4a8bb1f653}, !- Handle
  COATED POLY-55,                         !- Name
  SpectralAverage,                        !- Optical Data Type
  ,                                       !- Window Glass Spectral Data Set Name
  0.00051,                                !- Thickness {m}
  0.32,                                   !- Solar Transmittance at Normal Incidence
  0.582,                                  !- Front Side Solar Reflectance at Normal Incidence
  0.593,                                  !- Back Side Solar Reflectance at Normal Incidence
  0.551,                                  !- Visible Transmittance at Normal Incidence
  0.336,                                  !- Front Side Visible Reflectance at Normal Incidence
  0.375,                                  !- Back Side Visible Reflectance at Normal Incidence
  0,                                      !- Infrared Transmittance at Normal Incidence
  0.046,                                  !- Front Side Infrared Hemispherical Emissivity
  0.72,                                   !- Back Side Infrared Hemispherical Emissivity
  0.14;                                   !- Conductivity {W/m-K}

