
OS:Version,
  {ffdf3858-55a9-4ab7-9e0f-34205d71855f}, ! Handle
  0.9.3;                                  ! Version Identifier

OS:WindowMaterial:Glazing,
  {84f2954d-34e6-4a65-ae24-973626e87e51}, ! Handle
  Theoretical Glass [183],                ! Name
  SpectralAverage,                        ! Optical Data Type
  ,                                       ! Window Glass Spectral Data Set Name
  0.003,                                  ! Thickness {m}
  0.395208,                               ! Solar Transmittance at Normal Incidence
  0.554792,                               ! Front Side Solar Reflectance at Normal Incidence
  0.554792,                               ! Back Side Solar Reflectance at Normal Incidence
  0.507883,                               ! Visible Transmittance at Normal Incidence
  0.442117,                               ! Front Side Visible Reflectance at Normal Incidence
  0.442117,                               ! Back Side Visible Reflectance at Normal Incidence
  0,                                      ! Infrared Transmittance at Normal Incidence
  0.9,                                    ! Front Side Infrared Hemispherical Emissivity
  0.9,                                    ! Back Side Infrared Hemispherical Emissivity
  0.00882612;                             ! Conductivity {W/m-K}

OS:Construction,
  {c70dce27-403d-4041-af14-7f6b6966049f}, ! Handle
  90.1-2007 Nonres 6B Window Nonmetal framing, ! Name
  ,                                       ! Surface Rendering Name
  {84f2954d-34e6-4a65-ae24-973626e87e51}; ! Layer 1

OS:ComponentCost:LineItem,
  {2d2747f5-9080-41df-b4a7-524238802487}, ! Handle
  90.1-2007 Nonres 6B Window Nonmetal framing, ! Name
  ,                                       ! Type
  Construction,                           ! Line Item Type
  90.1-2007 Nonres 6B Window Nonmetal framing, ! Item Name
  ,                                       ! Object End Use Key
  ,                                       ! Quantity {dimensionless}
  512.02,                                 ! Material Cost {$}
  CostPerArea;                            ! Material Cost Units

