
OS:Version,
  {7b048b51-0839-4b93-bb2c-4b263c738165}, ! Handle
  0.9.3;                                  ! Version Identifier

OS:Material,
  {8560ae63-18e8-456e-af47-c61ce6217127}, ! Handle
  Roof Insulation [5],                    ! Name
  MediumRough,                            ! Roughness
  0.286906,                               ! Thickness {m}
  0.049,                                  ! Conductivity {W/m-K}
  265,                                    ! Density {kg/m3}
  836.8,                                  ! Specific Heat {J/kg-K}
  0.9,                                    ! Thermal Absorptance
  0.7,                                    ! Solar Absorptance
  0.7;                                    ! Visible Absorptance

OS:ComponentCost:LineItem,
  {4d30ac8d-5bc2-4a88-b1d1-ed3882918fb6}, ! Handle
  90.1-1999 Nonres B25 Roof Attic and Other, ! Name
  ,                                       ! Type
  Construction,                           ! Line Item Type
  90.1-1999 Nonres B25 Roof Attic and Other, ! Item Name
  ,                                       ! Object End Use Key
  ,                                       ! Quantity {dimensionless}
  34.757,                                 ! Material Cost {$}
  CostPerArea;                            ! Material Cost Units

OS:Material,
  {e5f5d9f1-bcfe-40dc-bda8-c874894a41ab}, ! Handle
  1/2IN Gypsum,                           ! Name
  Smooth,                                 ! Roughness
  0.01271,                                ! Thickness {m}
  0.16,                                   ! Conductivity {W/m-K}
  784.9,                                  ! Density {kg/m3}
  830,                                    ! Specific Heat {J/kg-K}
  0.9,                                    ! Thermal Absorptance
  0.92,                                   ! Solar Absorptance
  0.92;                                   ! Visible Absorptance

OS:Construction,
  {837a8b4e-5714-4a1e-8339-87a639870db8}, ! Handle
  90.1-1999 Nonres B25 Roof Attic and Other, ! Name
  ,                                       ! Surface Rendering Name
  {916be71c-cd52-4cfc-b9b1-87481ba4b444}, ! Layer 1
  {c5d6a495-54ea-4983-bdf1-7a4a25a0ed87}, ! Layer 2
  {8560ae63-18e8-456e-af47-c61ce6217127}, ! Layer 3
  {e5f5d9f1-bcfe-40dc-bda8-c874894a41ab}; ! Layer 4

OS:Material,
  {916be71c-cd52-4cfc-b9b1-87481ba4b444}, ! Handle
  Wood Shingles,                          ! Name
  VeryRough,                              ! Roughness
  0.0178,                                 ! Thickness {m}
  0.115,                                  ! Conductivity {W/m-K}
  513,                                    ! Density {kg/m3}
  1255,                                   ! Specific Heat {J/kg-K}
  0.9,                                    ! Thermal Absorptance
  0.78,                                   ! Solar Absorptance
  0.78;                                   ! Visible Absorptance

OS:Material,
  {c5d6a495-54ea-4983-bdf1-7a4a25a0ed87}, ! Handle
  1IN Wood Decking,                       ! Name
  MediumSmooth,                           ! Roughness
  0.0254,                                 ! Thickness {m}
  0.1211,                                 ! Conductivity {W/m-K}
  593,                                    ! Density {kg/m3}
  2510,                                   ! Specific Heat {J/kg-K}
  0.9,                                    ! Thermal Absorptance
  0.78,                                   ! Solar Absorptance
  0.78;                                   ! Visible Absorptance

