
OS:Version,
  {4625ea96-9ca9-4c3f-937c-010910b60386}, ! Handle
  0.9.3;                                  ! Version Identifier

OS:Construction,
  {50fcb942-0979-470d-8812-8a1b4fe3ec88}, ! Handle
  Title 24-2008 Nonres 3 Ext Slab Unheated - 8in Slab without Carpet, ! Name
  ,                                       ! Surface Rendering Name
  {36a178d1-db21-4ed9-9aa2-972df8107825}; ! Layer 1

OS:Material,
  {36a178d1-db21-4ed9-9aa2-972df8107825}, ! Handle
  MAT-CC05 8 HW CONCRETE,                 ! Name
  Rough,                                  ! Roughness
  0.20321,                                ! Thickness {m}
  1.311,                                  ! Conductivity {W/m-K}
  2240,                                   ! Density {kg/m3}
  836.8,                                  ! Specific Heat {J/kg-K}
  0.9,                                    ! Thermal Absorptance
  0.7,                                    ! Solar Absorptance
  0.7;                                    ! Visible Absorptance

OS:ComponentCost:LineItem,
  {8e510998-c0f9-4454-9566-856da3232de0}, ! Handle
  Title 24-2008 Nonres 3 Ext Slab Unheated - 8in Slab without Carpet, ! Name
  ,                                       ! Type
  Construction,                           ! Line Item Type
  Title 24-2008 Nonres 3 Ext Slab Unheated - 8in Slab without Carpet, ! Item Name
  ,                                       ! Object End Use Key
  ,                                       ! Quantity {dimensionless}
  45.52,                                  ! Material Cost {$}
  CostPerArea;                            ! Material Cost Units

OS:ComponentData,
  {3c700287-07d3-4800-a689-11e04608d00e}, ! Handle
  Component Data 1,                       ! Name
  {f330eac6-76ad-41c0-b786-69624179caac}, ! UUID
  {2919a68e-66c8-4062-8379-db590e87b946}, ! Version UUID
  1363982003,                             ! Creation Timestamp
  1363982003,                             ! Version Timestamp
  {50fcb942-0979-470d-8812-8a1b4fe3ec88}, ! Name of Object 1
  {36a178d1-db21-4ed9-9aa2-972df8107825}, ! Name of Object 2
  {8e510998-c0f9-4454-9566-856da3232de0}; ! Name of Object 3

