
OS:Version,
  {9328dda3-5634-4ff3-93c0-1c4fc758000a}, ! Handle
  0.9.3;                                  ! Version Identifier

OS:Construction,
  {f8a100b8-b7ac-41e6-a04d-aa2b5bb05188}, ! Handle
  Title 24-2008 Nonres 3 Ext Slab Unheated - 8in Slab without Carpet, ! Name
  ,                                       ! Surface Rendering Name
  {5de25ceb-dd1a-4edd-b1e5-ade59009432f}; ! Layer 1

OS:Material,
  {5de25ceb-dd1a-4edd-b1e5-ade59009432f}, ! Handle
  MAT-CC05 8 HW CONCRETE,                 ! Name
  Rough,                                  ! Roughness
  0.20321,                                ! Thickness {m}
  1.311,                                  ! Conductivity {W/m-K}
  2240,                                   ! Density {kg/m3}
  836.8,                                  ! Specific Heat {J/kg-K}
  0.9,                                    ! Thermal Absorptance
  0.7,                                    ! Solar Absorptance
  0.7;                                    ! Visible Absorptance

OS:ComponentCost:LineItem,
  {ef8b1153-62c8-485b-80c1-836a3d0ff8de}, ! Handle
  Title 24-2008 Nonres 3 Ext Slab Unheated - 8in Slab without Carpet, ! Name
  ,                                       ! Type
  Construction,                           ! Line Item Type
  Title 24-2008 Nonres 3 Ext Slab Unheated - 8in Slab without Carpet, ! Item Name
  ,                                       ! Object End Use Key
  ,                                       ! Quantity {dimensionless}
  45.52,                                  ! Material Cost {$}
  CostPerArea;                            ! Material Cost Units

