
OS:Version,
  {cf8ff3f0-527a-4b1c-a0d6-cbd34648852a}, ! Handle
  0.9.3;                                  ! Version Identifier

OS:Material,
  {ea0a9f1d-8290-41ec-b411-f07bd925c3f8}, ! Handle
  Metal Roofing,                          ! Name
  MediumSmooth,                           ! Roughness
  0.001524,                               ! Thickness {m}
  45.006,                                 ! Conductivity {W/m-K}
  7680,                                   ! Density {kg/m3}
  418.4,                                  ! Specific Heat {J/kg-K}
  0.9,                                    ! Thermal Absorptance
  0.7,                                    ! Solar Absorptance
  0.3;                                    ! Visible Absorptance

OS:ComponentCost:LineItem,
  {e8e9cfc6-eab1-4ed3-b5e3-1da001b64664}, ! Handle
  90.1-1999 Res B17 Roof Metal Building,  ! Name
  ,                                       ! Type
  Construction,                           ! Line Item Type
  90.1-1999 Res B17 Roof Metal Building,  ! Item Name
  ,                                       ! Object End Use Key
  ,                                       ! Quantity {dimensionless}
  38.206,                                 ! Material Cost {$}
  CostPerArea;                            ! Material Cost Units

OS:Material,
  {d00cbd9b-b7cb-42fd-80b2-70468b21f745}, ! Handle
  Roof Insulation [1],                    ! Name
  MediumRough,                            ! Roughness
  0.123533,                               ! Thickness {m}
  0.049,                                  ! Conductivity {W/m-K}
  265,                                    ! Density {kg/m3}
  836.8,                                  ! Specific Heat {J/kg-K}
  0.9,                                    ! Thermal Absorptance
  0.7,                                    ! Solar Absorptance
  0.7;                                    ! Visible Absorptance

OS:Construction,
  {10056b6c-ad2b-4f46-b472-54af54e22fb1}, ! Handle
  90.1-1999 Res B17 Roof Metal Building,  ! Name
  ,                                       ! Surface Rendering Name
  {ea0a9f1d-8290-41ec-b411-f07bd925c3f8}, ! Layer 1
  {d00cbd9b-b7cb-42fd-80b2-70468b21f745}; ! Layer 2

