
OS:Version,
  {e21de367-8235-468f-8a24-cfc31bbd2692}, ! Handle
  0.9.3;                                  ! Version Identifier

OS:ComponentCost:LineItem,
  {8897e40c-2804-4f4c-8793-febc442e14c8}, ! Handle
  189.1-2009 Res 6B Exposed Floor Mass,   ! Name
  ,                                       ! Type
  Construction,                           ! Line Item Type
  189.1-2009 Res 6B Exposed Floor Mass,   ! Item Name
  ,                                       ! Object End Use Key
  ,                                       ! Quantity {dimensionless}
  60.108,                                 ! Material Cost {$}
  CostPerArea;                            ! Material Cost Units

OS:Material:NoMass,
  {4b97b674-fe2d-4a7d-ba01-23cf22c5603e}, ! Handle
  CP02 CARPET PAD,                        ! Name
  VeryRough,                              ! Roughness
  0.21648,                                ! Thermal Resistance {m2-K/W}
  0.9,                                    ! Thermal Absorptance
  0.7,                                    ! Solar Absorptance
  0.8;                                    ! Visible Absorptance

OS:Material,
  {296fe6ff-2d20-4914-825c-c00773edf9ae}, ! Handle
  MAT-CC05 8 HW CONCRETE,                 ! Name
  Rough,                                  ! Roughness
  0.20321,                                ! Thickness {m}
  1.311,                                  ! Conductivity {W/m-K}
  2240,                                   ! Density {kg/m3}
  836.8,                                  ! Specific Heat {J/kg-K}
  0.9,                                    ! Thermal Absorptance
  0.7,                                    ! Solar Absorptance
  0.7;                                    ! Visible Absorptance

OS:Material,
  {bcd6ce21-7570-4fb2-8706-d69cda2a7d55}, ! Handle
  Floor Insulation [6],                   ! Name
  MediumRough,                            ! Roughness
  0.127418,                               ! Thickness {m}
  0.045,                                  ! Conductivity {W/m-K}
  265,                                    ! Density {kg/m3}
  836.8,                                  ! Specific Heat {J/kg-K}
  0.9,                                    ! Thermal Absorptance
  0.7,                                    ! Solar Absorptance
  0.7;                                    ! Visible Absorptance

OS:Construction,
  {760c2f3c-d9a9-4d94-890a-46178783f1e7}, ! Handle
  189.1-2009 Res 6B Exposed Floor Mass,   ! Name
  ,                                       ! Surface Rendering Name
  {bcd6ce21-7570-4fb2-8706-d69cda2a7d55}, ! Layer 1
  {296fe6ff-2d20-4914-825c-c00773edf9ae}, ! Layer 2
  {4b97b674-fe2d-4a7d-ba01-23cf22c5603e}; ! Layer 3

