
OS:Version,
  {9ed1c863-18ce-4a75-a04d-9ca533d206b4}, ! Handle
  0.9.3;                                  ! Version Identifier

OS:Construction,
  {76008aa2-b6e8-4cd6-a68b-cb5a9c99c5b6}, ! Handle
  90.1-1999 Nonres B11 Ext Wall Metal Building, ! Name
  ,                                       ! Surface Rendering Name
  {fa076d6f-8528-418c-9d3a-175dab2ed913}, ! Layer 1
  {d686df65-c02c-48b9-8723-6e3113070639}, ! Layer 2
  {527b4849-1a44-4e9d-851b-5856fd3c6697}; ! Layer 3

OS:Material,
  {fa076d6f-8528-418c-9d3a-175dab2ed913}, ! Handle
  Metal Siding,                           ! Name
  Smooth,                                 ! Roughness
  0.0015,                                 ! Thickness {m}
  44.96,                                  ! Conductivity {W/m-K}
  7688.86,                                ! Density {kg/m3}
  410,                                    ! Specific Heat {J/kg-K}
  0.9,                                    ! Thermal Absorptance
  0.2,                                    ! Solar Absorptance
  0.2;                                    ! Visible Absorptance

OS:Material,
  {d686df65-c02c-48b9-8723-6e3113070639}, ! Handle
  Wall Insulation,                        ! Name
  MediumRough,                            ! Roughness
  0.0598725,                              ! Thickness {m}
  0.045,                                  ! Conductivity {W/m-K}
  265,                                    ! Density {kg/m3}
  836.8,                                  ! Specific Heat {J/kg-K}
  0.9,                                    ! Thermal Absorptance
  0.7,                                    ! Solar Absorptance
  0.7;                                    ! Visible Absorptance

OS:Material,
  {527b4849-1a44-4e9d-851b-5856fd3c6697}, ! Handle
  1/2IN Gypsum,                           ! Name
  Smooth,                                 ! Roughness
  0.01271,                                ! Thickness {m}
  0.16,                                   ! Conductivity {W/m-K}
  784.9,                                  ! Density {kg/m3}
  830,                                    ! Specific Heat {J/kg-K}
  0.9,                                    ! Thermal Absorptance
  0.92,                                   ! Solar Absorptance
  0.92;                                   ! Visible Absorptance

OS:ComponentCost:LineItem,
  {594d6e43-b4db-4b45-aefd-7be46a16a450}, ! Handle
  90.1-1999 Nonres B11 Ext Wall Metal Building, ! Name
  ,                                       ! Type
  Construction,                           ! Line Item Type
  90.1-1999 Nonres B11 Ext Wall Metal Building, ! Item Name
  ,                                       ! Object End Use Key
  ,                                       ! Quantity {dimensionless}
  98.78,                                  ! Material Cost {$}
  CostPerArea;                            ! Material Cost Units

