
OS:Version,
  {cc384c3c-3319-45df-b21a-169c15fbc14c}, ! Handle
  0.9.3;                                  ! Version Identifier

OS:Construction,
  {1bb34ecd-b007-4a5a-aad8-55c42bae183a}, ! Handle
  189.1-2009 Res 2A Ext Slab Unheated - 4in Slab without Carpet, ! Name
  ,                                       ! Surface Rendering Name
  {8e2878fc-5496-4bb1-8dae-9539be128a48}; ! Layer 1

OS:Material,
  {8e2878fc-5496-4bb1-8dae-9539be128a48}, ! Handle
  MAT-CC05 4 HW CONCRETE,                 ! Name
  Rough,                                  ! Roughness
  0.1016,                                 ! Thickness {m}
  1.311,                                  ! Conductivity {W/m-K}
  2240,                                   ! Density {kg/m3}
  836.8,                                  ! Specific Heat {J/kg-K}
  0.9,                                    ! Thermal Absorptance
  0.7,                                    ! Solar Absorptance
  0.7;                                    ! Visible Absorptance

OS:ComponentCost:LineItem,
  {3ce4fc35-ab1a-4f0f-b3bb-b647e5f23e6a}, ! Handle
  189.1-2009 Res 2A Ext Slab Unheated - 4in Slab without Carpet, ! Name
  ,                                       ! Type
  Construction,                           ! Line Item Type
  189.1-2009 Res 2A Ext Slab Unheated - 4in Slab without Carpet, ! Item Name
  ,                                       ! Object End Use Key
  ,                                       ! Quantity {dimensionless}
  45.52,                                  ! Material Cost {$}
  CostPerArea;                            ! Material Cost Units

