
OS:Version,
  {ecf1e51b-5f84-4036-bd8b-d8aeaa3183af}, ! Handle
  0.9.3;                                  ! Version Identifier

OS:Construction,
  {bc3f0b6e-3a69-484f-a57f-a3803df02218}, ! Handle
  90.1-1999 Nonres B2 Ext Slab Unheated - 4in Slab without Carpet, ! Name
  ,                                       ! Surface Rendering Name
  {d0a434fc-ae63-4332-83eb-9ab70f06adce}; ! Layer 1

OS:Material,
  {d0a434fc-ae63-4332-83eb-9ab70f06adce}, ! Handle
  MAT-CC05 4 HW CONCRETE,                 ! Name
  Rough,                                  ! Roughness
  0.1016,                                 ! Thickness {m}
  1.311,                                  ! Conductivity {W/m-K}
  2240,                                   ! Density {kg/m3}
  836.8,                                  ! Specific Heat {J/kg-K}
  0.9,                                    ! Thermal Absorptance
  0.7,                                    ! Solar Absorptance
  0.7;                                    ! Visible Absorptance

OS:ComponentCost:LineItem,
  {7ad3f1e8-6d7d-4d13-bd92-d9cfccdf91c0}, ! Handle
  90.1-1999 Nonres B2 Ext Slab Unheated - 4in Slab without Carpet, ! Name
  ,                                       ! Type
  Construction,                           ! Line Item Type
  90.1-1999 Nonres B2 Ext Slab Unheated - 4in Slab without Carpet, ! Item Name
  ,                                       ! Object End Use Key
  ,                                       ! Quantity {dimensionless}
  45.52,                                  ! Material Cost {$}
  CostPerArea;                            ! Material Cost Units

