
OS:Version,
  {0c026951-ac10-40ac-ba41-3e10d6efbd93}, ! Handle
  0.9.3;                                  ! Version Identifier

OS:Construction,
  {1708bc9d-6335-43bc-aabc-792347fe4857}, ! Handle
  90.1-1999 Res B15 Skylight without Curb, ! Name
  ,                                       ! Surface Rendering Name
  {cd779abc-991e-4f46-9860-01bf29e8ca83}; ! Layer 1

OS:WindowMaterial:Glazing,
  {cd779abc-991e-4f46-9860-01bf29e8ca83}, ! Handle
  Theoretical Glass [95],                 ! Name
  SpectralAverage,                        ! Optical Data Type
  ,                                       ! Window Glass Spectral Data Set Name
  0.003,                                  ! Thickness {m}
  0.662387,                               ! Solar Transmittance at Normal Incidence
  0.287613,                               ! Front Side Solar Reflectance at Normal Incidence
  0.287613,                               ! Back Side Solar Reflectance at Normal Incidence
  0.754945,                               ! Visible Transmittance at Normal Incidence
  0.195055,                               ! Front Side Visible Reflectance at Normal Incidence
  0.195055,                               ! Back Side Visible Reflectance at Normal Incidence
  0,                                      ! Infrared Transmittance at Normal Incidence
  0.9,                                    ! Front Side Infrared Hemispherical Emissivity
  0.9,                                    ! Back Side Infrared Hemispherical Emissivity
  0.0324872;                              ! Conductivity {W/m-K}

OS:ComponentCost:LineItem,
  {a11de8e7-e88a-4f6d-b81a-359ae24cfc00}, ! Handle
  90.1-1999 Res B15 Skylight without Curb, ! Name
  ,                                       ! Type
  Construction,                           ! Line Item Type
  90.1-1999 Res B15 Skylight without Curb, ! Item Name
  ,                                       ! Object End Use Key
  ,                                       ! Quantity {dimensionless}
  502.229,                                ! Material Cost {$}
  CostPerArea;                            ! Material Cost Units

