
OS:Version,
  {6ad281e3-64ea-45a8-bb1a-dcc574efd97a}, ! Handle
  0.9.3;                                  ! Version Identifier

OS:Material,
  {5e87a649-db51-4a68-afd5-9c096056ffec}, ! Handle
  MAT-CC05 8 HW CONCRETE,                 ! Name
  Rough,                                  ! Roughness
  0.20321,                                ! Thickness {m}
  1.311,                                  ! Conductivity {W/m-K}
  2240,                                   ! Density {kg/m3}
  836.8,                                  ! Specific Heat {J/kg-K}
  0.9,                                    ! Thermal Absorptance
  0.7,                                    ! Solar Absorptance
  0.7;                                    ! Visible Absorptance

OS:Material:NoMass,
  {796638fa-dc9c-4caa-b8a6-979cc9794c37}, ! Handle
  CP02 CARPET PAD,                        ! Name
  VeryRough,                              ! Roughness
  0.21648,                                ! Thermal Resistance {m2-K/W}
  0.9,                                    ! Thermal Absorptance
  0.7,                                    ! Solar Absorptance
  0.8;                                    ! Visible Absorptance

OS:ComponentCost:LineItem,
  {a28b2aa3-7638-4cb8-b913-9f899754ea5c}, ! Handle
  90.1-1999 Nonres B4 Ext Slab Unheated - 8in Slab with Carpet, ! Name
  ,                                       ! Type
  Construction,                           ! Line Item Type
  90.1-1999 Nonres B4 Ext Slab Unheated - 8in Slab with Carpet, ! Item Name
  ,                                       ! Object End Use Key
  ,                                       ! Quantity {dimensionless}
  45.52,                                  ! Material Cost {$}
  CostPerArea;                            ! Material Cost Units

OS:Construction,
  {14739d07-c624-4dd6-b1fd-a4d05631a44e}, ! Handle
  90.1-1999 Nonres B4 Ext Slab Unheated - 8in Slab with Carpet, ! Name
  ,                                       ! Surface Rendering Name
  {5e87a649-db51-4a68-afd5-9c096056ffec}, ! Layer 1
  {796638fa-dc9c-4caa-b8a6-979cc9794c37}; ! Layer 2

