
OS:Version,
  {73671f56-de11-42da-b814-9594219dd2fd}, ! Handle
  0.9.3;                                  ! Version Identifier

OS:Material,
  {d6de60cd-92d8-483a-bbe5-f8e1e154d0a0}, ! Handle
  1/2IN Gypsum,                           ! Name
  Smooth,                                 ! Roughness
  0.01271,                                ! Thickness {m}
  0.16,                                   ! Conductivity {W/m-K}
  784.9,                                  ! Density {kg/m3}
  830,                                    ! Specific Heat {J/kg-K}
  0.9,                                    ! Thermal Absorptance
  0.92,                                   ! Solar Absorptance
  0.92;                                   ! Visible Absorptance

OS:Material,
  {8fd08d57-041f-4f2a-a882-6bb4211a8a0d}, ! Handle
  Wall Insulation [2],                    ! Name
  MediumRough,                            ! Roughness
  0.0746874,                              ! Thickness {m}
  0.045,                                  ! Conductivity {W/m-K}
  265,                                    ! Density {kg/m3}
  836.8,                                  ! Specific Heat {J/kg-K}
  0.9,                                    ! Thermal Absorptance
  0.7,                                    ! Solar Absorptance
  0.7;                                    ! Visible Absorptance

OS:Construction,
  {fae81053-1e62-40ac-9a59-7c4564fc9278}, ! Handle
  90.1-1999 Res B7 Ext Wall Wood-Framed and Other, ! Name
  ,                                       ! Surface Rendering Name
  {4dc25b59-632e-4329-ae3f-102e3a00e4c1}, ! Layer 1
  {8fd08d57-041f-4f2a-a882-6bb4211a8a0d}, ! Layer 2
  {d6de60cd-92d8-483a-bbe5-f8e1e154d0a0}; ! Layer 3

OS:Material,
  {4dc25b59-632e-4329-ae3f-102e3a00e4c1}, ! Handle
  Wood Siding,                            ! Name
  MediumSmooth,                           ! Roughness
  0.01,                                   ! Thickness {m}
  0.11,                                   ! Conductivity {W/m-K}
  544.62,                                 ! Density {kg/m3}
  1210,                                   ! Specific Heat {J/kg-K}
  0.9,                                    ! Thermal Absorptance
  0.78,                                   ! Solar Absorptance
  0.78;                                   ! Visible Absorptance

OS:ComponentCost:LineItem,
  {187744f9-6ec0-4db7-8419-fa48e96eecd1}, ! Handle
  90.1-1999 Res B7 Ext Wall Wood-Framed and Other, ! Name
  ,                                       ! Type
  Construction,                           ! Line Item Type
  90.1-1999 Res B7 Ext Wall Wood-Framed and Other, ! Item Name
  ,                                       ! Object End Use Key
  ,                                       ! Quantity {dimensionless}
  73.056,                                 ! Material Cost {$}
  CostPerArea;                            ! Material Cost Units

