
OS:Version,
  {e8e12673-2b8a-4687-9bae-f7d2495cea2d}, ! Handle
  0.9.3;                                  ! Version Identifier

OS:Construction,
  {67b5b96e-59c9-43b6-8dcf-448a707a8720}, ! Handle
  90.1-2004 Res 4B Ext Slab Unheated - 8in Slab without Carpet, ! Name
  ,                                       ! Surface Rendering Name
  {72392e22-6292-43e6-8f2b-7fd0ec7bde7f}; ! Layer 1

OS:Material,
  {72392e22-6292-43e6-8f2b-7fd0ec7bde7f}, ! Handle
  MAT-CC05 8 HW CONCRETE,                 ! Name
  Rough,                                  ! Roughness
  0.20321,                                ! Thickness {m}
  1.311,                                  ! Conductivity {W/m-K}
  2240,                                   ! Density {kg/m3}
  836.8,                                  ! Specific Heat {J/kg-K}
  0.9,                                    ! Thermal Absorptance
  0.7,                                    ! Solar Absorptance
  0.7;                                    ! Visible Absorptance

OS:ComponentCost:LineItem,
  {4c62b695-31b8-44a9-9133-e92e3607df21}, ! Handle
  90.1-2004 Res 4B Ext Slab Unheated - 8in Slab without Carpet, ! Name
  ,                                       ! Type
  Construction,                           ! Line Item Type
  90.1-2004 Res 4B Ext Slab Unheated - 8in Slab without Carpet, ! Item Name
  ,                                       ! Object End Use Key
  ,                                       ! Quantity {dimensionless}
  45.52,                                  ! Material Cost {$}
  CostPerArea;                            ! Material Cost Units

OS:ComponentData,
  {cb6b5e71-a110-41e7-9208-c6e8d164914d}, ! Handle
  Component Data 1,                       ! Name
  {b058ec83-d0fc-4ed3-80cd-73390086cfd9}, ! UUID
  {aa8e0bea-121a-4a5d-8468-75dce8c3cc7a}, ! Version UUID
  1363981739,                             ! Creation Timestamp
  1363981739,                             ! Version Timestamp
  {67b5b96e-59c9-43b6-8dcf-448a707a8720}, ! Name of Object 1
  {72392e22-6292-43e6-8f2b-7fd0ec7bde7f}, ! Name of Object 2
  {4c62b695-31b8-44a9-9133-e92e3607df21}; ! Name of Object 3

