
OS:Version,
  {3bcc68c6-2f4f-4494-8082-4ad073fd8b37}, ! Handle
  0.9.3;                                  ! Version Identifier

OS:Construction,
  {3263f5d7-3642-4b5e-b9af-4e9d94570013}, ! Handle
  AEDG-SmOffice 8A Roof IEAD,             ! Name
  ,                                       ! Surface Rendering Name
  {06c40d24-8148-45ab-b4a4-70ddc8c37879}, ! Layer 1
  {08c91121-dac0-47f9-8325-2e9888f1de69}, ! Layer 2
  {7a535764-0842-4cd2-ad89-c1b5cbe7f591}; ! Layer 3

OS:Material,
  {06c40d24-8148-45ab-b4a4-70ddc8c37879}, ! Handle
  Roof Membrane,                          ! Name
  VeryRough,                              ! Roughness
  0.0095,                                 ! Thickness {m}
  0.16,                                   ! Conductivity {W/m-K}
  1121.29,                                ! Density {kg/m3}
  1460,                                   ! Specific Heat {J/kg-K}
  0.9,                                    ! Thermal Absorptance
  0.7,                                    ! Solar Absorptance
  0.7;                                    ! Visible Absorptance

OS:Material,
  {08c91121-dac0-47f9-8325-2e9888f1de69}, ! Handle
  Roof Insulation [29],                   ! Name
  MediumRough,                            ! Roughness
  0.25753,                                ! Thickness {m}
  0.049,                                  ! Conductivity {W/m-K}
  265,                                    ! Density {kg/m3}
  836.8,                                  ! Specific Heat {J/kg-K}
  0.9,                                    ! Thermal Absorptance
  0.7,                                    ! Solar Absorptance
  0.7;                                    ! Visible Absorptance

OS:Material,
  {7a535764-0842-4cd2-ad89-c1b5cbe7f591}, ! Handle
  Metal Decking,                          ! Name
  MediumSmooth,                           ! Roughness
  0.001524,                               ! Thickness {m}
  45.006,                                 ! Conductivity {W/m-K}
  7680,                                   ! Density {kg/m3}
  418.4,                                  ! Specific Heat {J/kg-K}
  0.9,                                    ! Thermal Absorptance
  0.7,                                    ! Solar Absorptance
  0.3;                                    ! Visible Absorptance

OS:ComponentCost:LineItem,
  {fd565eba-af98-4a1f-9b6a-7de676872282}, ! Handle
  AEDG-SmOffice 8A Roof IEAD,             ! Name
  ,                                       ! Type
  Construction,                           ! Line Item Type
  AEDG-SmOffice 8A Roof IEAD,             ! Item Name
  ,                                       ! Object End Use Key
  ,                                       ! Quantity {dimensionless}
  60.869,                                 ! Material Cost {$}
  CostPerArea;                            ! Material Cost Units

OS:ComponentData,
  {fb5ed103-7060-4efc-8bb6-3f97e10b9f2e}, ! Handle
  Component Data 1,                       ! Name
  {2c309bd7-ceeb-4f07-b93d-398892ff90f1}, ! UUID
  {44db5781-4550-4039-8992-1abf17b1de5f}, ! Version UUID
  1363981967,                             ! Creation Timestamp
  1363981967,                             ! Version Timestamp
  {3263f5d7-3642-4b5e-b9af-4e9d94570013}, ! Name of Object 1
  {06c40d24-8148-45ab-b4a4-70ddc8c37879}, ! Name of Object 2
  {08c91121-dac0-47f9-8325-2e9888f1de69}, ! Name of Object 3
  {7a535764-0842-4cd2-ad89-c1b5cbe7f591}, ! Name of Object 4
  {fd565eba-af98-4a1f-9b6a-7de676872282}; ! Name of Object 5

