
OS:Version,
  {bde9b19e-765a-412b-b42b-6fa13daa42d0}, ! Handle
  0.9.3;                                  ! Version Identifier

OS:Material,
  {33d707f4-6328-4850-8f94-7e50878d1d73}, ! Handle
  Roof Insulation,                        ! Name
  MediumRough,                            ! Roughness
  0.124958,                               ! Thickness {m}
  0.049,                                  ! Conductivity {W/m-K}
  265,                                    ! Density {kg/m3}
  836.8,                                  ! Specific Heat {J/kg-K}
  0.9,                                    ! Thermal Absorptance
  0.7,                                    ! Solar Absorptance
  0.7;                                    ! Visible Absorptance

OS:Material,
  {3211d6df-e404-43cb-a50f-3a6186980dfa}, ! Handle
  Roof Membrane,                          ! Name
  VeryRough,                              ! Roughness
  0.0095,                                 ! Thickness {m}
  0.16,                                   ! Conductivity {W/m-K}
  1121.29,                                ! Density {kg/m3}
  1460,                                   ! Specific Heat {J/kg-K}
  0.9,                                    ! Thermal Absorptance
  0.7,                                    ! Solar Absorptance
  0.7;                                    ! Visible Absorptance

OS:Material,
  {2b7e41f6-ecd7-49ea-b319-d23bfac743e7}, ! Handle
  Metal Decking,                          ! Name
  MediumSmooth,                           ! Roughness
  0.001524,                               ! Thickness {m}
  45.006,                                 ! Conductivity {W/m-K}
  7680,                                   ! Density {kg/m3}
  418.4,                                  ! Specific Heat {J/kg-K}
  0.9,                                    ! Thermal Absorptance
  0.7,                                    ! Solar Absorptance
  0.3;                                    ! Visible Absorptance

OS:Construction,
  {4b2b8df0-7e21-4b40-bec2-8a40b9e490f5}, ! Handle
  90.1-1999 Res B4 Roof IEAD,             ! Name
  ,                                       ! Surface Rendering Name
  {3211d6df-e404-43cb-a50f-3a6186980dfa}, ! Layer 1
  {33d707f4-6328-4850-8f94-7e50878d1d73}, ! Layer 2
  {2b7e41f6-ecd7-49ea-b319-d23bfac743e7}; ! Layer 3

OS:ComponentCost:LineItem,
  {88d16f87-f5de-4c5b-9bb5-6032de83620e}, ! Handle
  90.1-1999 Res B4 Roof IEAD,             ! Name
  ,                                       ! Type
  Construction,                           ! Line Item Type
  90.1-1999 Res B4 Roof IEAD,             ! Item Name
  ,                                       ! Object End Use Key
  ,                                       ! Quantity {dimensionless}
  49.208,                                 ! Material Cost {$}
  CostPerArea;                            ! Material Cost Units

