
OS:Version,
  {baecd73d-9cf5-4b1a-8b36-f6751bb260da}, ! Handle
  0.9.3;                                  ! Version Identifier

OS:WindowMaterial:Glazing,
  {8f86eea6-8f75-4706-9cd1-015a56aeea5d}, ! Handle
  Theoretical Glass [45],                 ! Name
  SpectralAverage,                        ! Optical Data Type
  ,                                       ! Window Glass Spectral Data Set Name
  0.003,                                  ! Thickness {m}
  0.482092,                               ! Solar Transmittance at Normal Incidence
  0.467908,                               ! Front Side Solar Reflectance at Normal Incidence
  0.467908,                               ! Back Side Solar Reflectance at Normal Incidence
  0.529698,                               ! Visible Transmittance at Normal Incidence
  0.420302,                               ! Front Side Visible Reflectance at Normal Incidence
  0.420302,                               ! Back Side Visible Reflectance at Normal Incidence
  0,                                      ! Infrared Transmittance at Normal Incidence
  0.9,                                    ! Front Side Infrared Hemispherical Emissivity
  0.9,                                    ! Back Side Infrared Hemispherical Emissivity
  0.0205762;                              ! Conductivity {W/m-K}

OS:Construction,
  {0c75cbff-69cf-4c69-958f-bf0739ed4c9f}, ! Handle
  90.1-2001 Nonres B23 Skylight without Curb, ! Name
  ,                                       ! Surface Rendering Name
  {8f86eea6-8f75-4706-9cd1-015a56aeea5d}; ! Layer 1

OS:ComponentCost:LineItem,
  {586e99ba-1bee-40c4-8303-0499482e3180}, ! Handle
  90.1-2001 Nonres B23 Skylight without Curb, ! Name
  ,                                       ! Type
  Construction,                           ! Line Item Type
  90.1-2001 Nonres B23 Skylight without Curb, ! Item Name
  ,                                       ! Object End Use Key
  ,                                       ! Quantity {dimensionless}
  524.932,                                ! Material Cost {$}
  CostPerArea;                            ! Material Cost Units

