
OS:Version,
  {ef5609a3-0184-4b3b-b71d-c2ce0ed956df}, !- Handle
  1.1.0;                                  !- Version Identifier

OS:Construction,
  {be8c668d-b426-4067-a87f-ab53dfa79348}, !- Handle
  Quadruple LoE Films (88) 3mm/8mm Krypton, !- Name
  ,                                       !- Surface Rendering Name
  {5b1797ba-38af-4954-bfd3-b9411e7dd709}, !- Layer 1
  {5c9c9dcc-d0df-491a-bdb0-07ae86e52736}, !- Layer 2
  {c0624a58-eb8a-4e4d-9a2a-dc0dd82782c2}, !- Layer 3
  {58237231-4eef-4436-a237-f8c8f37c9711}, !- Layer 4
  {c0624a58-eb8a-4e4d-9a2a-dc0dd82782c2}, !- Layer 5
  {5c9c9dcc-d0df-491a-bdb0-07ae86e52736}, !- Layer 6
  {5b1797ba-38af-4954-bfd3-b9411e7dd709}; !- Layer 7

OS:WindowMaterial:Glazing,
  {5b1797ba-38af-4954-bfd3-b9411e7dd709}, !- Handle
  CLEAR 3MM,                              !- Name
  SpectralAverage,                        !- Optical Data Type
  ,                                       !- Window Glass Spectral Data Set Name
  0.003,                                  !- Thickness {m}
  0.837,                                  !- Solar Transmittance at Normal Incidence
  0.075,                                  !- Front Side Solar Reflectance at Normal Incidence
  0.075,                                  !- Back Side Solar Reflectance at Normal Incidence
  0.898,                                  !- Visible Transmittance at Normal Incidence
  0.081,                                  !- Front Side Visible Reflectance at Normal Incidence
  0.081,                                  !- Back Side Visible Reflectance at Normal Incidence
  0,                                      !- Infrared Transmittance at Normal Incidence
  0.84,                                   !- Front Side Infrared Hemispherical Emissivity
  0.84,                                   !- Back Side Infrared Hemispherical Emissivity
  0.9;                                    !- Conductivity {W/m-K}

OS:WindowMaterial:Gas,
  {5c9c9dcc-d0df-491a-bdb0-07ae86e52736}, !- Handle
  KRYPTON 8MM,                            !- Name
  Krypton,                                !- Gas Type
  0.0079;                                 !- Thickness {m}

OS:WindowMaterial:Glazing,
  {c0624a58-eb8a-4e4d-9a2a-dc0dd82782c2}, !- Handle
  COATED POLY-88,                         !- Name
  SpectralAverage,                        !- Optical Data Type
  ,                                       !- Window Glass Spectral Data Set Name
  0.00051,                                !- Thickness {m}
  0.656,                                  !- Solar Transmittance at Normal Incidence
  0.249,                                  !- Front Side Solar Reflectance at Normal Incidence
  0.227,                                  !- Back Side Solar Reflectance at Normal Incidence
  0.868,                                  !- Visible Transmittance at Normal Incidence
  0.064,                                  !- Front Side Visible Reflectance at Normal Incidence
  0.06,                                   !- Back Side Visible Reflectance at Normal Incidence
  0,                                      !- Infrared Transmittance at Normal Incidence
  0.136,                                  !- Front Side Infrared Hemispherical Emissivity
  0.72,                                   !- Back Side Infrared Hemispherical Emissivity
  0.14;                                   !- Conductivity {W/m-K}

OS:WindowMaterial:Gas,
  {58237231-4eef-4436-a237-f8c8f37c9711}, !- Handle
  KRYPTON 3MM,                            !- Name
  Krypton,                                !- Gas Type
  0.0032;                                 !- Thickness {m}

OS:ComponentData,
  {84af0c9f-130e-4901-89b1-cf52255d16a8}, !- Handle
  Component Data 1,                       !- Name
  {63dba350-91fe-40b6-9aec-f3916e2ef141}, !- UUID
  {7e1d6fb7-69cc-4335-80c2-070f00134ae9}, !- Version UUID
  1384380186,                             !- Creation Timestamp
  1384380186,                             !- Version Timestamp
  {be8c668d-b426-4067-a87f-ab53dfa79348}, !- Name of Object 1
  {5b1797ba-38af-4954-bfd3-b9411e7dd709}, !- Name of Object 2
  {5c9c9dcc-d0df-491a-bdb0-07ae86e52736}, !- Name of Object 3
  {c0624a58-eb8a-4e4d-9a2a-dc0dd82782c2}, !- Name of Object 4
  {58237231-4eef-4436-a237-f8c8f37c9711}; !- Name of Object 5

