
OS:Version,
  {77870aa8-42a6-4efa-a72f-cfa8eca72b80}, !- Handle
  1.1.0;                                  !- Version Identifier

OS:Construction,
  {2125a5b2-20cf-4f67-a049-ce547fccce67}, !- Handle
  Quadruple LoE Films (88) 3mm/8mm Krypton, !- Name
  ,                                       !- Surface Rendering Name
  {152da506-fee4-4e3a-9c70-d9f66fdf9371}, !- Layer 1
  {68030c1c-8223-4b76-9c5e-8a9ac0ec6245}, !- Layer 2
  {43d87fdb-cb6d-487c-b74d-64e6985cbf33}, !- Layer 3
  {27edbe67-242d-4f5b-af95-4508bdc72ff6}, !- Layer 4
  {43d87fdb-cb6d-487c-b74d-64e6985cbf33}, !- Layer 5
  {68030c1c-8223-4b76-9c5e-8a9ac0ec6245}, !- Layer 6
  {152da506-fee4-4e3a-9c70-d9f66fdf9371}; !- Layer 7

OS:WindowMaterial:Glazing,
  {152da506-fee4-4e3a-9c70-d9f66fdf9371}, !- Handle
  CLEAR 3MM,                              !- Name
  SpectralAverage,                        !- Optical Data Type
  ,                                       !- Window Glass Spectral Data Set Name
  0.003,                                  !- Thickness {m}
  0.837,                                  !- Solar Transmittance at Normal Incidence
  0.075,                                  !- Front Side Solar Reflectance at Normal Incidence
  0.075,                                  !- Back Side Solar Reflectance at Normal Incidence
  0.898,                                  !- Visible Transmittance at Normal Incidence
  0.081,                                  !- Front Side Visible Reflectance at Normal Incidence
  0.081,                                  !- Back Side Visible Reflectance at Normal Incidence
  0,                                      !- Infrared Transmittance at Normal Incidence
  0.84,                                   !- Front Side Infrared Hemispherical Emissivity
  0.84,                                   !- Back Side Infrared Hemispherical Emissivity
  0.9;                                    !- Conductivity {W/m-K}

OS:WindowMaterial:Gas,
  {68030c1c-8223-4b76-9c5e-8a9ac0ec6245}, !- Handle
  KRYPTON 8MM,                            !- Name
  Krypton,                                !- Gas Type
  0.0079;                                 !- Thickness {m}

OS:WindowMaterial:Glazing,
  {43d87fdb-cb6d-487c-b74d-64e6985cbf33}, !- Handle
  COATED POLY-88,                         !- Name
  SpectralAverage,                        !- Optical Data Type
  ,                                       !- Window Glass Spectral Data Set Name
  0.00051,                                !- Thickness {m}
  0.656,                                  !- Solar Transmittance at Normal Incidence
  0.249,                                  !- Front Side Solar Reflectance at Normal Incidence
  0.227,                                  !- Back Side Solar Reflectance at Normal Incidence
  0.868,                                  !- Visible Transmittance at Normal Incidence
  0.064,                                  !- Front Side Visible Reflectance at Normal Incidence
  0.06,                                   !- Back Side Visible Reflectance at Normal Incidence
  0,                                      !- Infrared Transmittance at Normal Incidence
  0.136,                                  !- Front Side Infrared Hemispherical Emissivity
  0.72,                                   !- Back Side Infrared Hemispherical Emissivity
  0.14;                                   !- Conductivity {W/m-K}

OS:WindowMaterial:Gas,
  {27edbe67-242d-4f5b-af95-4508bdc72ff6}, !- Handle
  KRYPTON 3MM,                            !- Name
  Krypton,                                !- Gas Type
  0.0032;                                 !- Thickness {m}

