
OS:Version,
  {b6bfea69-ee4a-463b-a0d3-21b04e84069a}, ! Handle
  0.9.3;                                  ! Version Identifier

OS:Material,
  {c5e5517f-0419-42ee-8a43-932917deff91}, ! Handle
  1/2IN Gypsum,                           ! Name
  Smooth,                                 ! Roughness
  0.01271,                                ! Thickness {m}
  0.16,                                   ! Conductivity {W/m-K}
  784.9,                                  ! Density {kg/m3}
  830,                                    ! Specific Heat {J/kg-K}
  0.9,                                    ! Thermal Absorptance
  0.92,                                   ! Solar Absorptance
  0.92;                                   ! Visible Absorptance

OS:Material,
  {268ec0be-0615-4190-9533-cb76ad0365e7}, ! Handle
  Wall Insulation [2],                    ! Name
  MediumRough,                            ! Roughness
  0.0746874,                              ! Thickness {m}
  0.045,                                  ! Conductivity {W/m-K}
  265,                                    ! Density {kg/m3}
  836.8,                                  ! Specific Heat {J/kg-K}
  0.9,                                    ! Thermal Absorptance
  0.7,                                    ! Solar Absorptance
  0.7;                                    ! Visible Absorptance

OS:Construction,
  {6af985cb-fe5a-4a68-b280-876be59c90f3}, ! Handle
  90.1-1999 Res B15 Ext Wall Wood-Framed and Other, ! Name
  ,                                       ! Surface Rendering Name
  {8a5f1245-f40a-42fe-ad8d-80af542393dd}, ! Layer 1
  {268ec0be-0615-4190-9533-cb76ad0365e7}, ! Layer 2
  {c5e5517f-0419-42ee-8a43-932917deff91}; ! Layer 3

OS:Material,
  {8a5f1245-f40a-42fe-ad8d-80af542393dd}, ! Handle
  Wood Siding,                            ! Name
  MediumSmooth,                           ! Roughness
  0.01,                                   ! Thickness {m}
  0.11,                                   ! Conductivity {W/m-K}
  544.62,                                 ! Density {kg/m3}
  1210,                                   ! Specific Heat {J/kg-K}
  0.9,                                    ! Thermal Absorptance
  0.78,                                   ! Solar Absorptance
  0.78;                                   ! Visible Absorptance

OS:ComponentCost:LineItem,
  {f86f6b28-7ed8-4e92-85e8-48d7c638661c}, ! Handle
  90.1-1999 Res B15 Ext Wall Wood-Framed and Other, ! Name
  ,                                       ! Type
  Construction,                           ! Line Item Type
  90.1-1999 Res B15 Ext Wall Wood-Framed and Other, ! Item Name
  ,                                       ! Object End Use Key
  ,                                       ! Quantity {dimensionless}
  73.056,                                 ! Material Cost {$}
  CostPerArea;                            ! Material Cost Units

