
OS:Version,
  {f2fe2417-5a8c-4202-abb8-5968d85116ad}, ! Handle
  0.9.3;                                  ! Version Identifier

OS:Construction,
  {0c68c2e1-4125-4dbc-bf44-65b4e8796b7c}, ! Handle
  90.1-1999 Nonres B26 Window Fixed,      ! Name
  ,                                       ! Surface Rendering Name
  {486bf513-0ece-43c7-a0ef-bdae1eae1c48}; ! Layer 1

OS:WindowMaterial:Glazing,
  {486bf513-0ece-43c7-a0ef-bdae1eae1c48}, ! Handle
  Theoretical Glass [57],                 ! Name
  SpectralAverage,                        ! Optical Data Type
  ,                                       ! Window Glass Spectral Data Set Name
  0.003,                                  ! Thickness {m}
  0.457116,                               ! Solar Transmittance at Normal Incidence
  0.492884,                               ! Front Side Solar Reflectance at Normal Incidence
  0.492884,                               ! Back Side Solar Reflectance at Normal Incidence
  0.493419,                               ! Visible Transmittance at Normal Incidence
  0.456581,                               ! Front Side Visible Reflectance at Normal Incidence
  0.456581,                               ! Back Side Visible Reflectance at Normal Incidence
  0,                                      ! Infrared Transmittance at Normal Incidence
  0.9,                                    ! Front Side Infrared Hemispherical Emissivity
  0.9,                                    ! Back Side Infrared Hemispherical Emissivity
  0.00557951;                             ! Conductivity {W/m-K}

OS:ComponentCost:LineItem,
  {ce99b51c-9396-4074-b7e3-69a091837709}, ! Handle
  90.1-1999 Nonres B26 Window Fixed,      ! Name
  ,                                       ! Type
  Construction,                           ! Line Item Type
  90.1-1999 Nonres B26 Window Fixed,      ! Item Name
  ,                                       ! Object End Use Key
  ,                                       ! Quantity {dimensionless}
  660.078,                                ! Material Cost {$}
  CostPerArea;                            ! Material Cost Units

OS:ComponentData,
  {5fce1d54-5013-4f7f-a717-9c047c703c30}, ! Handle
  Component Data 1,                       ! Name
  {ca2e9518-22eb-43de-a62f-f0816e3fa020}, ! UUID
  {c83a6cea-31e2-4791-9781-9518eff7c1ac}, ! Version UUID
  1363981161,                             ! Creation Timestamp
  1363981161,                             ! Version Timestamp
  {0c68c2e1-4125-4dbc-bf44-65b4e8796b7c}, ! Name of Object 1
  {486bf513-0ece-43c7-a0ef-bdae1eae1c48}, ! Name of Object 2
  {ce99b51c-9396-4074-b7e3-69a091837709}; ! Name of Object 3

