
OS:Version,
  {bc9b8945-9778-4ed6-b866-b46bb391e0a6}, ! Handle
  0.9.3;                                  ! Version Identifier

OS:WindowMaterial:Glazing,
  {9724d719-9ed8-4406-877c-f9d75c4eba94}, ! Handle
  Theoretical Glass [57],                 ! Name
  SpectralAverage,                        ! Optical Data Type
  ,                                       ! Window Glass Spectral Data Set Name
  0.003,                                  ! Thickness {m}
  0.457116,                               ! Solar Transmittance at Normal Incidence
  0.492884,                               ! Front Side Solar Reflectance at Normal Incidence
  0.492884,                               ! Back Side Solar Reflectance at Normal Incidence
  0.493419,                               ! Visible Transmittance at Normal Incidence
  0.456581,                               ! Front Side Visible Reflectance at Normal Incidence
  0.456581,                               ! Back Side Visible Reflectance at Normal Incidence
  0,                                      ! Infrared Transmittance at Normal Incidence
  0.9,                                    ! Front Side Infrared Hemispherical Emissivity
  0.9,                                    ! Back Side Infrared Hemispherical Emissivity
  0.00557951;                             ! Conductivity {W/m-K}

OS:ComponentCost:LineItem,
  {fc273181-5d1a-4099-84c7-c85102123292}, ! Handle
  90.1-1999 Nonres B26 Window Fixed,      ! Name
  ,                                       ! Type
  Construction,                           ! Line Item Type
  90.1-1999 Nonres B26 Window Fixed,      ! Item Name
  ,                                       ! Object End Use Key
  ,                                       ! Quantity {dimensionless}
  660.078,                                ! Material Cost {$}
  CostPerArea;                            ! Material Cost Units

OS:Construction,
  {aeedfd0c-2bc1-438a-bd26-a27050df8dee}, ! Handle
  90.1-1999 Nonres B26 Window Fixed,      ! Name
  ,                                       ! Surface Rendering Name
  {9724d719-9ed8-4406-877c-f9d75c4eba94}; ! Layer 1

