
OS:Version,
  {e4d1f862-378d-4a51-b82d-e0ea38cce68a}, ! Handle
  0.9.3;                                  ! Version Identifier

OS:Material,
  {720b45b0-3786-4ebb-a95f-26091a1bf3b9}, ! Handle
  Metal Roofing,                          ! Name
  MediumSmooth,                           ! Roughness
  0.001524,                               ! Thickness {m}
  45.006,                                 ! Conductivity {W/m-K}
  7680,                                   ! Density {kg/m3}
  418.4,                                  ! Specific Heat {J/kg-K}
  0.9,                                    ! Thermal Absorptance
  0.7,                                    ! Solar Absorptance
  0.3;                                    ! Visible Absorptance

OS:Material,
  {726fe582-93e4-4177-bab0-c836a7466939}, ! Handle
  Roof Insulation [6],                    ! Name
  MediumRough,                            ! Roughness
  0.147675,                               ! Thickness {m}
  0.049,                                  ! Conductivity {W/m-K}
  265,                                    ! Density {kg/m3}
  836.8,                                  ! Specific Heat {J/kg-K}
  0.9,                                    ! Thermal Absorptance
  0.7,                                    ! Solar Absorptance
  0.7;                                    ! Visible Absorptance

OS:ComponentCost:LineItem,
  {5c6f35e2-0025-4d25-b051-8ce050c3b412}, ! Handle
  90.1-1999 Res B1 Roof Metal Building,   ! Name
  ,                                       ! Type
  Construction,                           ! Line Item Type
  90.1-1999 Res B1 Roof Metal Building,   ! Item Name
  ,                                       ! Object End Use Key
  ,                                       ! Quantity {dimensionless}
  40.571,                                 ! Material Cost {$}
  CostPerArea;                            ! Material Cost Units

OS:Construction,
  {d52a95cc-2549-453e-a0c4-5c31cc10c823}, ! Handle
  90.1-1999 Res B1 Roof Metal Building,   ! Name
  ,                                       ! Surface Rendering Name
  {720b45b0-3786-4ebb-a95f-26091a1bf3b9}, ! Layer 1
  {726fe582-93e4-4177-bab0-c836a7466939}; ! Layer 2

