
OS:Version,
  {ed2bb2a8-1b08-49e7-8197-15fb70f6d835}, ! Handle
  0.9.3;                                  ! Version Identifier

OS:Construction,
  {569351d1-e70d-4bfe-a53a-0ba8348a0b93}, ! Handle
  90.1-2001 Nonres B19 Ext Wall Wood-Framed and Other, ! Name
  ,                                       ! Surface Rendering Name
  {0fa2ed6e-cefc-40f4-9b93-7d768c6bf5f6}, ! Layer 1
  {9b4b2a23-396b-4188-a252-a4ed1c361759}, ! Layer 2
  {8a02c499-a58a-4ebb-8a07-4a5e7d13ac34}; ! Layer 3

OS:Material,
  {0fa2ed6e-cefc-40f4-9b93-7d768c6bf5f6}, ! Handle
  Wood Siding,                            ! Name
  MediumSmooth,                           ! Roughness
  0.01,                                   ! Thickness {m}
  0.11,                                   ! Conductivity {W/m-K}
  544.62,                                 ! Density {kg/m3}
  1210,                                   ! Specific Heat {J/kg-K}
  0.9,                                    ! Thermal Absorptance
  0.78,                                   ! Solar Absorptance
  0.78;                                   ! Visible Absorptance

OS:Material,
  {9b4b2a23-396b-4188-a252-a4ed1c361759}, ! Handle
  Wall Insulation [2],                    ! Name
  MediumRough,                            ! Roughness
  0.0746874,                              ! Thickness {m}
  0.045,                                  ! Conductivity {W/m-K}
  265,                                    ! Density {kg/m3}
  836.8,                                  ! Specific Heat {J/kg-K}
  0.9,                                    ! Thermal Absorptance
  0.7,                                    ! Solar Absorptance
  0.7;                                    ! Visible Absorptance

OS:Material,
  {8a02c499-a58a-4ebb-8a07-4a5e7d13ac34}, ! Handle
  1/2IN Gypsum,                           ! Name
  Smooth,                                 ! Roughness
  0.01271,                                ! Thickness {m}
  0.16,                                   ! Conductivity {W/m-K}
  784.9,                                  ! Density {kg/m3}
  830,                                    ! Specific Heat {J/kg-K}
  0.9,                                    ! Thermal Absorptance
  0.92,                                   ! Solar Absorptance
  0.92;                                   ! Visible Absorptance

OS:ComponentCost:LineItem,
  {484d2876-0694-4502-8303-b1e5af749f8a}, ! Handle
  90.1-2001 Nonres B19 Ext Wall Wood-Framed and Other, ! Name
  ,                                       ! Type
  Construction,                           ! Line Item Type
  90.1-2001 Nonres B19 Ext Wall Wood-Framed and Other, ! Item Name
  ,                                       ! Object End Use Key
  ,                                       ! Quantity {dimensionless}
  73.056,                                 ! Material Cost {$}
  CostPerArea;                            ! Material Cost Units

