
OS:Version,
  {678afbc4-4897-4844-abd9-8c2b16b6ee9e}, ! Handle
  0.9.3;                                  ! Version Identifier

OS:Construction,
  {ba71bc91-3cb6-428c-98f4-97e2f6cfa718}, ! Handle
  90.1-1999 Nonres B18 Ext Slab Unheated - 4in Slab without Carpet, ! Name
  ,                                       ! Surface Rendering Name
  {de596baa-508d-4095-9fa1-d962c745b5c4}; ! Layer 1

OS:Material,
  {de596baa-508d-4095-9fa1-d962c745b5c4}, ! Handle
  MAT-CC05 4 HW CONCRETE,                 ! Name
  Rough,                                  ! Roughness
  0.1016,                                 ! Thickness {m}
  1.311,                                  ! Conductivity {W/m-K}
  2240,                                   ! Density {kg/m3}
  836.8,                                  ! Specific Heat {J/kg-K}
  0.9,                                    ! Thermal Absorptance
  0.7,                                    ! Solar Absorptance
  0.7;                                    ! Visible Absorptance

OS:ComponentCost:LineItem,
  {6b87f1cf-a64b-4a9e-a8d3-af0f57b86c53}, ! Handle
  90.1-1999 Nonres B18 Ext Slab Unheated - 4in Slab without Carpet, ! Name
  ,                                       ! Type
  Construction,                           ! Line Item Type
  90.1-1999 Nonres B18 Ext Slab Unheated - 4in Slab without Carpet, ! Item Name
  ,                                       ! Object End Use Key
  ,                                       ! Quantity {dimensionless}
  45.52,                                  ! Material Cost {$}
  CostPerArea;                            ! Material Cost Units

OS:ComponentData,
  {d5433a98-4ebb-4467-8cd4-cacb3f25406b}, ! Handle
  Component Data 1,                       ! Name
  {c80ce59b-2471-4fc6-9353-e3e4add82039}, ! UUID
  {a271832a-4074-4a44-9e09-e4853029351f}, ! Version UUID
  1363981120,                             ! Creation Timestamp
  1363981120,                             ! Version Timestamp
  {ba71bc91-3cb6-428c-98f4-97e2f6cfa718}, ! Name of Object 1
  {de596baa-508d-4095-9fa1-d962c745b5c4}, ! Name of Object 2
  {6b87f1cf-a64b-4a9e-a8d3-af0f57b86c53}; ! Name of Object 3

