
OS:Version,
  {be25cbdd-c87a-42f4-902f-551033ed2d6c}, ! Handle
  0.9.3;                                  ! Version Identifier

OS:Construction,
  {c0f416b5-e3df-4cb3-a736-c298f197c648}, ! Handle
  90.1-2001 Res B17 Roof IEAD,            ! Name
  ,                                       ! Surface Rendering Name
  {8fee42d5-ddc7-4b15-9a00-97a7ff9d316a}, ! Layer 1
  {3ef6a7d4-b6c6-41c2-a585-b88709ef5904}, ! Layer 2
  {2a6717db-5151-41e4-b9a5-f17fdfd0fb0f}; ! Layer 3

OS:Material,
  {8fee42d5-ddc7-4b15-9a00-97a7ff9d316a}, ! Handle
  Roof Membrane,                          ! Name
  VeryRough,                              ! Roughness
  0.0095,                                 ! Thickness {m}
  0.16,                                   ! Conductivity {W/m-K}
  1121.29,                                ! Density {kg/m3}
  1460,                                   ! Specific Heat {J/kg-K}
  0.9,                                    ! Thermal Absorptance
  0.7,                                    ! Solar Absorptance
  0.7;                                    ! Visible Absorptance

OS:Material,
  {3ef6a7d4-b6c6-41c2-a585-b88709ef5904}, ! Handle
  Roof Insulation,                        ! Name
  MediumRough,                            ! Roughness
  0.124958,                               ! Thickness {m}
  0.049,                                  ! Conductivity {W/m-K}
  265,                                    ! Density {kg/m3}
  836.8,                                  ! Specific Heat {J/kg-K}
  0.9,                                    ! Thermal Absorptance
  0.7,                                    ! Solar Absorptance
  0.7;                                    ! Visible Absorptance

OS:Material,
  {2a6717db-5151-41e4-b9a5-f17fdfd0fb0f}, ! Handle
  Metal Decking,                          ! Name
  MediumSmooth,                           ! Roughness
  0.001524,                               ! Thickness {m}
  45.006,                                 ! Conductivity {W/m-K}
  7680,                                   ! Density {kg/m3}
  418.4,                                  ! Specific Heat {J/kg-K}
  0.9,                                    ! Thermal Absorptance
  0.7,                                    ! Solar Absorptance
  0.3;                                    ! Visible Absorptance

OS:ComponentCost:LineItem,
  {492b654c-c77c-4bc6-86f2-7866cbf9fe03}, ! Handle
  90.1-2001 Res B17 Roof IEAD,            ! Name
  ,                                       ! Type
  Construction,                           ! Line Item Type
  90.1-2001 Res B17 Roof IEAD,            ! Item Name
  ,                                       ! Object End Use Key
  ,                                       ! Quantity {dimensionless}
  49.208,                                 ! Material Cost {$}
  CostPerArea;                            ! Material Cost Units

