
OS:Version,
  {1b4cfe2f-e0cb-4529-9b03-7bb95d675a97}, ! Handle
  0.9.3;                                  ! Version Identifier

OS:Construction,
  {78f5f6ee-5692-4754-b3cf-d90fd893b143}, ! Handle
  90.1-2001 Res B17 Roof IEAD,            ! Name
  ,                                       ! Surface Rendering Name
  {1fbc0186-a608-4724-b0b7-9e606d5a0e7b}, ! Layer 1
  {ca122dd9-71e8-42c1-a8b7-fde657113d78}, ! Layer 2
  {36c7a463-1d9c-46ef-8622-a80285133446}; ! Layer 3

OS:Material,
  {1fbc0186-a608-4724-b0b7-9e606d5a0e7b}, ! Handle
  Roof Membrane,                          ! Name
  VeryRough,                              ! Roughness
  0.0095,                                 ! Thickness {m}
  0.16,                                   ! Conductivity {W/m-K}
  1121.29,                                ! Density {kg/m3}
  1460,                                   ! Specific Heat {J/kg-K}
  0.9,                                    ! Thermal Absorptance
  0.7,                                    ! Solar Absorptance
  0.7;                                    ! Visible Absorptance

OS:Material,
  {ca122dd9-71e8-42c1-a8b7-fde657113d78}, ! Handle
  Roof Insulation,                        ! Name
  MediumRough,                            ! Roughness
  0.124958,                               ! Thickness {m}
  0.049,                                  ! Conductivity {W/m-K}
  265,                                    ! Density {kg/m3}
  836.8,                                  ! Specific Heat {J/kg-K}
  0.9,                                    ! Thermal Absorptance
  0.7,                                    ! Solar Absorptance
  0.7;                                    ! Visible Absorptance

OS:Material,
  {36c7a463-1d9c-46ef-8622-a80285133446}, ! Handle
  Metal Decking,                          ! Name
  MediumSmooth,                           ! Roughness
  0.001524,                               ! Thickness {m}
  45.006,                                 ! Conductivity {W/m-K}
  7680,                                   ! Density {kg/m3}
  418.4,                                  ! Specific Heat {J/kg-K}
  0.9,                                    ! Thermal Absorptance
  0.7,                                    ! Solar Absorptance
  0.3;                                    ! Visible Absorptance

OS:ComponentCost:LineItem,
  {b32e439f-3f94-43e3-89c9-209b026d0f00}, ! Handle
  90.1-2001 Res B17 Roof IEAD,            ! Name
  ,                                       ! Type
  Construction,                           ! Line Item Type
  90.1-2001 Res B17 Roof IEAD,            ! Item Name
  ,                                       ! Object End Use Key
  ,                                       ! Quantity {dimensionless}
  49.208,                                 ! Material Cost {$}
  CostPerArea;                            ! Material Cost Units

OS:ComponentData,
  {2955fa49-777f-4519-9b73-bcc993304c9a}, ! Handle
  Component Data 1,                       ! Name
  {86eedc7d-5d1c-4187-aef0-30dd9592d30b}, ! UUID
  {9268b588-ce3a-4ff1-84ca-b591ef1ca964}, ! Version UUID
  1363981549,                             ! Creation Timestamp
  1363981549,                             ! Version Timestamp
  {78f5f6ee-5692-4754-b3cf-d90fd893b143}, ! Name of Object 1
  {1fbc0186-a608-4724-b0b7-9e606d5a0e7b}, ! Name of Object 2
  {ca122dd9-71e8-42c1-a8b7-fde657113d78}, ! Name of Object 3
  {36c7a463-1d9c-46ef-8622-a80285133446}, ! Name of Object 4
  {b32e439f-3f94-43e3-89c9-209b026d0f00}; ! Name of Object 5

