
OS:Version,
  {87724408-810e-4ad2-808a-dc06ffe75e50}, ! Handle
  0.9.3;                                  ! Version Identifier

OS:Construction,
  {10c079f7-9a1a-4d22-a90a-733503215c28}, ! Handle
  90.1-1999 Nonres B6 Ext Wall Mass,      ! Name
  ,                                       ! Surface Rendering Name
  {522be08b-8919-4702-9862-9fb82383f5be}, ! Layer 1
  {8bf051f5-17f1-4ee9-8a61-7cc5997751e1}, ! Layer 2
  {e7d21c7c-6bf3-41f3-aeae-9ace1b7bfaeb}; ! Layer 3

OS:Material,
  {522be08b-8919-4702-9862-9fb82383f5be}, ! Handle
  1IN Stucco,                             ! Name
  Smooth,                                 ! Roughness
  0.0253,                                 ! Thickness {m}
  0.6918,                                 ! Conductivity {W/m-K}
  1858,                                   ! Density {kg/m3}
  837,                                    ! Specific Heat {J/kg-K}
  0.9,                                    ! Thermal Absorptance
  0.92,                                   ! Solar Absorptance
  0.92;                                   ! Visible Absorptance

OS:Material,
  {8bf051f5-17f1-4ee9-8a61-7cc5997751e1}, ! Handle
  8IN Concrete HW,                        ! Name
  MediumRough,                            ! Roughness
  0.2033,                                 ! Thickness {m}
  1.7296,                                 ! Conductivity {W/m-K}
  2243,                                   ! Density {kg/m3}
  837,                                    ! Specific Heat {J/kg-K}
  0.9,                                    ! Thermal Absorptance
  0.65,                                   ! Solar Absorptance
  0.65;                                   ! Visible Absorptance

OS:Material,
  {e7d21c7c-6bf3-41f3-aeae-9ace1b7bfaeb}, ! Handle
  1/2IN Gypsum,                           ! Name
  Smooth,                                 ! Roughness
  0.01271,                                ! Thickness {m}
  0.16,                                   ! Conductivity {W/m-K}
  784.9,                                  ! Density {kg/m3}
  830,                                    ! Specific Heat {J/kg-K}
  0.9,                                    ! Thermal Absorptance
  0.92,                                   ! Solar Absorptance
  0.92;                                   ! Visible Absorptance

OS:ComponentCost:LineItem,
  {b0922649-19f9-405d-8469-14560a810b28}, ! Handle
  90.1-1999 Nonres B6 Ext Wall Mass,      ! Name
  ,                                       ! Type
  Construction,                           ! Line Item Type
  90.1-1999 Nonres B6 Ext Wall Mass,      ! Item Name
  ,                                       ! Object End Use Key
  ,                                       ! Quantity {dimensionless}
  41.397,                                 ! Material Cost {$}
  CostPerArea;                            ! Material Cost Units

