
OS:Version,
  {b226f984-11a8-4c11-9a65-a9fc41fd5f74}, ! Handle
  0.9.3;                                  ! Version Identifier

OS:ComponentCost:LineItem,
  {0d161f49-e375-4233-97c1-390ddc2cfdf5}, ! Handle
  90.1-1999 Nonres B10 Ext Slab Unheated - 8in Slab with Carpet, ! Name
  ,                                       ! Type
  Construction,                           ! Line Item Type
  90.1-1999 Nonres B10 Ext Slab Unheated - 8in Slab with Carpet, ! Item Name
  ,                                       ! Object End Use Key
  ,                                       ! Quantity {dimensionless}
  45.52,                                  ! Material Cost {$}
  CostPerArea;                            ! Material Cost Units

OS:Construction,
  {cc81dd21-15d8-4113-9fcf-58ce52ce8a80}, ! Handle
  90.1-1999 Nonres B10 Ext Slab Unheated - 8in Slab with Carpet, ! Name
  ,                                       ! Surface Rendering Name
  {d0e534cc-d6d8-4f41-ba45-dd11d152debe}, ! Layer 1
  {e25ef18c-7aaf-4ac9-890c-2ca123363e70}; ! Layer 2

OS:Material,
  {d0e534cc-d6d8-4f41-ba45-dd11d152debe}, ! Handle
  MAT-CC05 8 HW CONCRETE,                 ! Name
  Rough,                                  ! Roughness
  0.20321,                                ! Thickness {m}
  1.311,                                  ! Conductivity {W/m-K}
  2240,                                   ! Density {kg/m3}
  836.8,                                  ! Specific Heat {J/kg-K}
  0.9,                                    ! Thermal Absorptance
  0.7,                                    ! Solar Absorptance
  0.7;                                    ! Visible Absorptance

OS:Material:NoMass,
  {e25ef18c-7aaf-4ac9-890c-2ca123363e70}, ! Handle
  CP02 CARPET PAD,                        ! Name
  VeryRough,                              ! Roughness
  0.21648,                                ! Thermal Resistance {m2-K/W}
  0.9,                                    ! Thermal Absorptance
  0.7,                                    ! Solar Absorptance
  0.8;                                    ! Visible Absorptance

