
OS:Version,
  {a19edfdc-1558-4e9e-9fb6-dbe5d54e1a35}, ! Handle
  0.9.3;                                  ! Version Identifier

OS:Material,
  {3a37f2a9-51fc-45e2-b766-36659abc18fc}, ! Handle
  Roof Insulation [8],                    ! Name
  MediumRough,                            ! Roughness
  0.166908,                               ! Thickness {m}
  0.049,                                  ! Conductivity {W/m-K}
  265,                                    ! Density {kg/m3}
  836.8,                                  ! Specific Heat {J/kg-K}
  0.9,                                    ! Thermal Absorptance
  0.7,                                    ! Solar Absorptance
  0.7;                                    ! Visible Absorptance

OS:Construction,
  {4a3f2d94-101a-4a34-ad39-9800cd628e0b}, ! Handle
  AEDG-SmOffice 6B Roof Metal Building,   ! Name
  ,                                       ! Surface Rendering Name
  {50f38124-df7a-42a8-8621-e8139bef773c}, ! Layer 1
  {3a37f2a9-51fc-45e2-b766-36659abc18fc}; ! Layer 2

OS:Material,
  {50f38124-df7a-42a8-8621-e8139bef773c}, ! Handle
  Metal Roofing,                          ! Name
  MediumSmooth,                           ! Roughness
  0.001524,                               ! Thickness {m}
  45.006,                                 ! Conductivity {W/m-K}
  7680,                                   ! Density {kg/m3}
  418.4,                                  ! Specific Heat {J/kg-K}
  0.9,                                    ! Thermal Absorptance
  0.7,                                    ! Solar Absorptance
  0.3;                                    ! Visible Absorptance

OS:ComponentCost:LineItem,
  {372333b8-ad79-4afd-82aa-3fcbebf72e1e}, ! Handle
  AEDG-SmOffice 6B Roof Metal Building,   ! Name
  ,                                       ! Type
  Construction,                           ! Line Item Type
  AEDG-SmOffice 6B Roof Metal Building,   ! Item Name
  ,                                       ! Object End Use Key
  ,                                       ! Quantity {dimensionless}
  42.184,                                 ! Material Cost {$}
  CostPerArea;                            ! Material Cost Units

