
OS:Version,
  {edbf8027-a0f1-4967-b83d-4e74ec7637af}, ! Handle
  0.9.3;                                  ! Version Identifier

OS:Construction,
  {99caf879-f5d3-4328-b32c-e7a7e269f04c}, ! Handle
  90.1-2001 Nonres B16 Ext Wall Metal Building, ! Name
  ,                                       ! Surface Rendering Name
  {e45e4bde-2185-4c4d-a01e-4591a28e9e42}, ! Layer 1
  {c10f8c49-adcf-448a-b07f-ae8b16eb7208}, ! Layer 2
  {4677f7b2-c931-4e6c-a353-5156dafd2cf5}; ! Layer 3

OS:Material,
  {e45e4bde-2185-4c4d-a01e-4591a28e9e42}, ! Handle
  Metal Siding,                           ! Name
  Smooth,                                 ! Roughness
  0.0015,                                 ! Thickness {m}
  44.96,                                  ! Conductivity {W/m-K}
  7688.86,                                ! Density {kg/m3}
  410,                                    ! Specific Heat {J/kg-K}
  0.9,                                    ! Thermal Absorptance
  0.2,                                    ! Solar Absorptance
  0.2;                                    ! Visible Absorptance

OS:Material,
  {c10f8c49-adcf-448a-b07f-ae8b16eb7208}, ! Handle
  Wall Insulation,                        ! Name
  MediumRough,                            ! Roughness
  0.0598725,                              ! Thickness {m}
  0.045,                                  ! Conductivity {W/m-K}
  265,                                    ! Density {kg/m3}
  836.8,                                  ! Specific Heat {J/kg-K}
  0.9,                                    ! Thermal Absorptance
  0.7,                                    ! Solar Absorptance
  0.7;                                    ! Visible Absorptance

OS:Material,
  {4677f7b2-c931-4e6c-a353-5156dafd2cf5}, ! Handle
  1/2IN Gypsum,                           ! Name
  Smooth,                                 ! Roughness
  0.01271,                                ! Thickness {m}
  0.16,                                   ! Conductivity {W/m-K}
  784.9,                                  ! Density {kg/m3}
  830,                                    ! Specific Heat {J/kg-K}
  0.9,                                    ! Thermal Absorptance
  0.92,                                   ! Solar Absorptance
  0.92;                                   ! Visible Absorptance

OS:ComponentCost:LineItem,
  {b287423e-650d-40f7-991a-9439a6097f57}, ! Handle
  90.1-2001 Nonres B16 Ext Wall Metal Building, ! Name
  ,                                       ! Type
  Construction,                           ! Line Item Type
  90.1-2001 Nonres B16 Ext Wall Metal Building, ! Item Name
  ,                                       ! Object End Use Key
  ,                                       ! Quantity {dimensionless}
  98.78,                                  ! Material Cost {$}
  CostPerArea;                            ! Material Cost Units

