
OS:Version,
  {9c82fe03-468b-4faf-8cd8-6b39b1e43534}, ! Handle
  0.9.3;                                  ! Version Identifier

OS:Construction,
  {ae53a446-c432-4469-b4cc-dcf97d62aa77}, ! Handle
  90.1-2004 Res 4B Skylight without Curb, ! Name
  ,                                       ! Surface Rendering Name
  {a316eeb1-e0ee-4c22-a05c-87899315ace2}; ! Layer 1

OS:WindowMaterial:Glazing,
  {a316eeb1-e0ee-4c22-a05c-87899315ace2}, ! Handle
  Theoretical Glass [161],                ! Name
  SpectralAverage,                        ! Optical Data Type
  ,                                       ! Window Glass Spectral Data Set Name
  0.003,                                  ! Thickness {m}
  0.353547,                               ! Solar Transmittance at Normal Incidence
  0.596453,                               ! Front Side Solar Reflectance at Normal Incidence
  0.596453,                               ! Back Side Solar Reflectance at Normal Incidence
  0.457336,                               ! Visible Transmittance at Normal Incidence
  0.492664,                               ! Front Side Visible Reflectance at Normal Incidence
  0.492664,                               ! Back Side Visible Reflectance at Normal Incidence
  0,                                      ! Infrared Transmittance at Normal Incidence
  0.9,                                    ! Front Side Infrared Hemispherical Emissivity
  0.9,                                    ! Back Side Infrared Hemispherical Emissivity
  0.0205762;                              ! Conductivity {W/m-K}

OS:ComponentCost:LineItem,
  {b89d6c61-0393-4a66-bcd5-3327b78a4cf9}, ! Handle
  90.1-2004 Res 4B Skylight without Curb, ! Name
  ,                                       ! Type
  Construction,                           ! Line Item Type
  90.1-2004 Res 4B Skylight without Curb, ! Item Name
  ,                                       ! Object End Use Key
  ,                                       ! Quantity {dimensionless}
  550.972,                                ! Material Cost {$}
  CostPerArea;                            ! Material Cost Units

OS:ComponentData,
  {ec223190-3cf8-48b7-aae4-359fea048913}, ! Handle
  Component Data 1,                       ! Name
  {2c2aa423-1a9e-465e-b6e7-5b70cc961339}, ! UUID
  {6cd2fee2-8203-4512-9d69-734abb2dc1d3}, ! Version UUID
  1363981742,                             ! Creation Timestamp
  1363981742,                             ! Version Timestamp
  {ae53a446-c432-4469-b4cc-dcf97d62aa77}, ! Name of Object 1
  {a316eeb1-e0ee-4c22-a05c-87899315ace2}, ! Name of Object 2
  {b89d6c61-0393-4a66-bcd5-3327b78a4cf9}; ! Name of Object 3

