
OS:Version,
  {2dec6c3e-7d74-4cc4-b6e8-e1127956debd}, ! Handle
  0.9.3;                                  ! Version Identifier

OS:Construction,
  {3e366035-81f5-40c6-bf0c-8e38a0fdefc9}, ! Handle
  90.1-1999 Res B21 Ext Wall Steel-Framed, ! Name
  ,                                       ! Surface Rendering Name
  {dfec631d-8571-4ce5-852b-67300780fcea}, ! Layer 1
  {e8091702-a415-4dd1-9b1f-5c4a2e3bc410}, ! Layer 2
  {f4eb6ca8-5096-4a9e-b060-f8e0a9a7661e}; ! Layer 3

OS:Material:NoMass,
  {dfec631d-8571-4ce5-852b-67300780fcea}, ! Handle
  MAT-SHEATH,                             ! Name
  Rough,                                  ! Roughness
  0.36256,                                ! Thermal Resistance {m2-K/W}
  0.9,                                    ! Thermal Absorptance
  0.7,                                    ! Solar Absorptance
  0.7;                                    ! Visible Absorptance

OS:Material,
  {e8091702-a415-4dd1-9b1f-5c4a2e3bc410}, ! Handle
  Wall Insulation [10],                   ! Name
  MediumRough,                            ! Roughness
  0.0971136,                              ! Thickness {m}
  0.045,                                  ! Conductivity {W/m-K}
  265,                                    ! Density {kg/m3}
  836.8,                                  ! Specific Heat {J/kg-K}
  0.9,                                    ! Thermal Absorptance
  0.7,                                    ! Solar Absorptance
  0.7;                                    ! Visible Absorptance

OS:Material,
  {f4eb6ca8-5096-4a9e-b060-f8e0a9a7661e}, ! Handle
  1/2IN Gypsum,                           ! Name
  Smooth,                                 ! Roughness
  0.01271,                                ! Thickness {m}
  0.16,                                   ! Conductivity {W/m-K}
  784.9,                                  ! Density {kg/m3}
  830,                                    ! Specific Heat {J/kg-K}
  0.9,                                    ! Thermal Absorptance
  0.92,                                   ! Solar Absorptance
  0.92;                                   ! Visible Absorptance

OS:ComponentCost:LineItem,
  {271e38b5-7f03-4f43-a28a-595ad90a1696}, ! Handle
  90.1-1999 Res B21 Ext Wall Steel-Framed, ! Name
  ,                                       ! Type
  Construction,                           ! Line Item Type
  90.1-1999 Res B21 Ext Wall Steel-Framed, ! Item Name
  ,                                       ! Object End Use Key
  ,                                       ! Quantity {dimensionless}
  94.657,                                 ! Material Cost {$}
  CostPerArea;                            ! Material Cost Units

