
OS:Version,
  {b4a19a5b-8358-4624-86f3-50ae41b69055}, ! Handle
  0.9.3;                                  ! Version Identifier

OS:Construction,
  {2214f4c5-ba10-4d5c-ba5a-bbd62290b6eb}, ! Handle
  AEDG K12 Nonres 6B Skylight without Curb, ! Name
  ,                                       ! Surface Rendering Name
  {e928e34b-c880-4774-946b-e5e9b6140ed6}; ! Layer 1

OS:WindowMaterial:Glazing,
  {e928e34b-c880-4774-946b-e5e9b6140ed6}, ! Handle
  Theoretical Glass [255],                ! Name
  SpectralAverage,                        ! Optical Data Type
  ,                                       ! Window Glass Spectral Data Set Name
  0.003,                                  ! Thickness {m}
  0.472234,                               ! Solar Transmittance at Normal Incidence
  0.477766,                               ! Front Side Solar Reflectance at Normal Incidence
  0.477766,                               ! Back Side Solar Reflectance at Normal Incidence
  0.621562,                               ! Visible Transmittance at Normal Incidence
  0.328438,                               ! Front Side Visible Reflectance at Normal Incidence
  0.328438,                               ! Back Side Visible Reflectance at Normal Incidence
  0,                                      ! Infrared Transmittance at Normal Incidence
  0.9,                                    ! Front Side Infrared Hemispherical Emissivity
  0.9,                                    ! Back Side Infrared Hemispherical Emissivity
  0.0324872;                              ! Conductivity {W/m-K}

OS:ComponentCost:LineItem,
  {91e76170-1202-4b77-9bc2-bc65577115f1}, ! Handle
  AEDG K12 Nonres 6B Skylight without Curb, ! Name
  ,                                       ! Type
  Construction,                           ! Line Item Type
  AEDG K12 Nonres 6B Skylight without Curb, ! Item Name
  ,                                       ! Object End Use Key
  ,                                       ! Quantity {dimensionless}
  508.47,                                 ! Material Cost {$}
  CostPerArea;                            ! Material Cost Units

OS:ComponentData,
  {84b83784-8a88-492f-88c1-9b2cab236189}, ! Handle
  Component Data 1,                       ! Name
  {5fd621c8-d0bf-4e88-b115-db1bd590ec4f}, ! UUID
  {308d0d3f-ac16-4760-92ff-a64089f004ee}, ! Version UUID
  1363981901,                             ! Creation Timestamp
  1363981901,                             ! Version Timestamp
  {2214f4c5-ba10-4d5c-ba5a-bbd62290b6eb}, ! Name of Object 1
  {e928e34b-c880-4774-946b-e5e9b6140ed6}, ! Name of Object 2
  {91e76170-1202-4b77-9bc2-bc65577115f1}; ! Name of Object 3

