
OS:Version,
  {3b08a983-de59-44c3-b902-a4dc98846c43}, ! Handle
  0.9.3;                                  ! Version Identifier

OS:Construction,
  {45c23c95-fb68-4491-8da5-346649d8ebb9}, ! Handle
  90.1-2007 Res 5B Ext Slab Unheated - 8in Slab with Carpet, ! Name
  ,                                       ! Surface Rendering Name
  {0d829959-7d2c-4e50-9881-c75a49f5a233}, ! Layer 1
  {646e7763-07d3-4c45-bcf4-3bba54a6e0c0}; ! Layer 2

OS:Material,
  {0d829959-7d2c-4e50-9881-c75a49f5a233}, ! Handle
  MAT-CC05 8 HW CONCRETE,                 ! Name
  Rough,                                  ! Roughness
  0.20321,                                ! Thickness {m}
  1.311,                                  ! Conductivity {W/m-K}
  2240,                                   ! Density {kg/m3}
  836.8,                                  ! Specific Heat {J/kg-K}
  0.9,                                    ! Thermal Absorptance
  0.7,                                    ! Solar Absorptance
  0.7;                                    ! Visible Absorptance

OS:Material:NoMass,
  {646e7763-07d3-4c45-bcf4-3bba54a6e0c0}, ! Handle
  CP02 CARPET PAD,                        ! Name
  VeryRough,                              ! Roughness
  0.21648,                                ! Thermal Resistance {m2-K/W}
  0.9,                                    ! Thermal Absorptance
  0.7,                                    ! Solar Absorptance
  0.8;                                    ! Visible Absorptance

OS:ComponentCost:LineItem,
  {79bb13bf-31a4-4c18-8ffb-0a3375aafdc5}, ! Handle
  90.1-2007 Res 5B Ext Slab Unheated - 8in Slab with Carpet, ! Name
  ,                                       ! Type
  Construction,                           ! Line Item Type
  90.1-2007 Res 5B Ext Slab Unheated - 8in Slab with Carpet, ! Item Name
  ,                                       ! Object End Use Key
  ,                                       ! Quantity {dimensionless}
  45.52,                                  ! Material Cost {$}
  CostPerArea;                            ! Material Cost Units

OS:ComponentData,
  {c31ee3c0-4375-4d97-b8e4-a395c83354ff}, ! Handle
  Component Data 1,                       ! Name
  {bafb801f-c305-4521-8763-3fcf4fb1799f}, ! UUID
  {6ec5e693-0ea8-471e-8034-e2ca9dc76a32}, ! Version UUID
  1363981859,                             ! Creation Timestamp
  1363981859,                             ! Version Timestamp
  {45c23c95-fb68-4491-8da5-346649d8ebb9}, ! Name of Object 1
  {0d829959-7d2c-4e50-9881-c75a49f5a233}, ! Name of Object 2
  {646e7763-07d3-4c45-bcf4-3bba54a6e0c0}, ! Name of Object 3
  {79bb13bf-31a4-4c18-8ffb-0a3375aafdc5}; ! Name of Object 4

