
OS:Version,
  {2e166e25-13e6-4595-b8e5-ed471b463ce1}, ! Handle
  0.9.3;                                  ! Version Identifier

OS:Material,
  {b3bcbe01-f52a-4139-95bc-9590c0608040}, ! Handle
  GP01 1/2 GYPSUM 1,                      ! Name
  Smooth,                                 ! Roughness
  0.01271,                                ! Thickness {m}
  0.16,                                   ! Conductivity {W/m-K}
  800,                                    ! Density {kg/m3}
  1090,                                   ! Specific Heat {J/kg-K}
  0.9,                                    ! Thermal Absorptance
  0.7,                                    ! Solar Absorptance
  0.5;                                    ! Visible Absorptance

OS:Construction,
  {a778b2c1-332a-4446-969a-6f930d804b8e}, ! Handle
  90.1-1999 Res B3 Int Wall,              ! Name
  ,                                       ! Surface Rendering Name
  {89aeb91a-9ef2-4a88-9511-a91265456f13}, ! Layer 1
  {89aeb91a-9ef2-4a88-9511-a91265456f13}; ! Layer 2

OS:Material,
  {89aeb91a-9ef2-4a88-9511-a91265456f13}, ! Handle
  GP01 1/2 GYPSUM,                        ! Name
  Smooth,                                 ! Roughness
  0.01271,                                ! Thickness {m}
  0.16,                                   ! Conductivity {W/m-K}
  800,                                    ! Density {kg/m3}
  1090,                                   ! Specific Heat {J/kg-K}
  0.9,                                    ! Thermal Absorptance
  0.7,                                    ! Solar Absorptance
  0.5;                                    ! Visible Absorptance

OS:ComponentCost:LineItem,
  {8b7680a3-259a-4cb2-b50e-e6a4ec8fb5cd}, ! Handle
  90.1-1999 Res B3 Int Wall,              ! Name
  ,                                       ! Type
  Construction,                           ! Line Item Type
  90.1-1999 Res B3 Int Wall,              ! Item Name
  ,                                       ! Object End Use Key
  ,                                       ! Quantity {dimensionless}
  0,                                      ! Material Cost {$}
  CostPerArea;                            ! Material Cost Units

