
OS:Version,
  {2702a5f4-1da0-4375-a5c4-c31c6f1ceac5}, ! Handle
  0.9.3;                                  ! Version Identifier

OS:WindowMaterial:Glazing,
  {3602bede-e3bb-435f-bbfd-c80c57519d2a}, ! Handle
  Theoretical Glass [189],                ! Name
  SpectralAverage,                        ! Optical Data Type
  ,                                       ! Window Glass Spectral Data Set Name
  0.003,                                  ! Thickness {m}
  0.444641,                               ! Solar Transmittance at Normal Incidence
  0.505359,                               ! Front Side Solar Reflectance at Normal Incidence
  0.505359,                               ! Back Side Solar Reflectance at Normal Incidence
  0.450308,                               ! Visible Transmittance at Normal Incidence
  0.499692,                               ! Front Side Visible Reflectance at Normal Incidence
  0.499692,                               ! Back Side Visible Reflectance at Normal Incidence
  0,                                      ! Infrared Transmittance at Normal Incidence
  0.9,                                    ! Front Side Infrared Hemispherical Emissivity
  0.9,                                    ! Back Side Infrared Hemispherical Emissivity
  0.0107657;                              ! Conductivity {W/m-K}

OS:ComponentCost:LineItem,
  {c552ed10-a23a-469b-9665-13d806fc5eaa}, ! Handle
  90.1-2007 Nonres 8A Window Metal framing curtainwall-storefront, ! Name
  ,                                       ! Type
  Construction,                           ! Line Item Type
  90.1-2007 Nonres 8A Window Metal framing curtainwall-storefront, ! Item Name
  ,                                       ! Object End Use Key
  ,                                       ! Quantity {dimensionless}
  508.362,                                ! Material Cost {$}
  CostPerArea;                            ! Material Cost Units

OS:Construction,
  {84606fb3-88db-4d9d-bf1c-bea8408923d2}, ! Handle
  90.1-2007 Nonres 8A Window Metal framing curtainwall-storefront, ! Name
  ,                                       ! Surface Rendering Name
  {3602bede-e3bb-435f-bbfd-c80c57519d2a}; ! Layer 1

