
OS:Version,
  {87a257cc-d0b6-41ea-90f5-a4688fdb5437}, ! Handle
  0.9.3;                                  ! Version Identifier

OS:Material,
  {6ffe2ac2-e1e6-4274-b6ef-2ebd07f4e6e5}, ! Handle
  Metal Siding,                           ! Name
  Smooth,                                 ! Roughness
  0.0015,                                 ! Thickness {m}
  44.96,                                  ! Conductivity {W/m-K}
  7688.86,                                ! Density {kg/m3}
  410,                                    ! Specific Heat {J/kg-K}
  0.9,                                    ! Thermal Absorptance
  0.2,                                    ! Solar Absorptance
  0.2;                                    ! Visible Absorptance

OS:Material,
  {7f1a4ee4-ae1f-4ded-83cc-62dd3c4a78e8}, ! Handle
  1/2IN Gypsum,                           ! Name
  Smooth,                                 ! Roughness
  0.01271,                                ! Thickness {m}
  0.16,                                   ! Conductivity {W/m-K}
  784.9,                                  ! Density {kg/m3}
  830,                                    ! Specific Heat {J/kg-K}
  0.9,                                    ! Thermal Absorptance
  0.92,                                   ! Solar Absorptance
  0.92;                                   ! Visible Absorptance

OS:Material,
  {be0dae57-3467-4627-8943-a534798a500c}, ! Handle
  Wall Insulation,                        ! Name
  MediumRough,                            ! Roughness
  0.0598725,                              ! Thickness {m}
  0.045,                                  ! Conductivity {W/m-K}
  265,                                    ! Density {kg/m3}
  836.8,                                  ! Specific Heat {J/kg-K}
  0.9,                                    ! Thermal Absorptance
  0.7,                                    ! Solar Absorptance
  0.7;                                    ! Visible Absorptance

OS:ComponentCost:LineItem,
  {4c0f9617-e42b-4def-b927-ac8da1ab86de}, ! Handle
  90.1-2001 Nonres B19 Ext Wall Metal Building, ! Name
  ,                                       ! Type
  Construction,                           ! Line Item Type
  90.1-2001 Nonres B19 Ext Wall Metal Building, ! Item Name
  ,                                       ! Object End Use Key
  ,                                       ! Quantity {dimensionless}
  98.78,                                  ! Material Cost {$}
  CostPerArea;                            ! Material Cost Units

OS:Construction,
  {a675ffa1-2a67-446a-abca-5eba97f8dc09}, ! Handle
  90.1-2001 Nonres B19 Ext Wall Metal Building, ! Name
  ,                                       ! Surface Rendering Name
  {6ffe2ac2-e1e6-4274-b6ef-2ebd07f4e6e5}, ! Layer 1
  {be0dae57-3467-4627-8943-a534798a500c}, ! Layer 2
  {7f1a4ee4-ae1f-4ded-83cc-62dd3c4a78e8}; ! Layer 3

