
OS:Version,
  {bb58edab-24a5-4f44-a244-38698009a379}, ! Handle
  0.9.3;                                  ! Version Identifier

OS:Material,
  {fca65f9c-fae6-4bf8-93e2-ed8c26a53939}, ! Handle
  Wall Insulation [7],                    ! Name
  MediumRough,                            ! Roughness
  0.056577,                               ! Thickness {m}
  0.0432,                                 ! Conductivity {W/m-K}
  91,                                     ! Density {kg/m3}
  837,                                    ! Specific Heat {J/kg-K}
  0.9,                                    ! Thermal Absorptance
  0.5,                                    ! Solar Absorptance
  0.5;                                    ! Visible Absorptance

OS:Material,
  {f9cc9849-d056-44f1-931c-7569efc7a517}, ! Handle
  1IN Stucco,                             ! Name
  Smooth,                                 ! Roughness
  0.0253,                                 ! Thickness {m}
  0.6918,                                 ! Conductivity {W/m-K}
  1858,                                   ! Density {kg/m3}
  837,                                    ! Specific Heat {J/kg-K}
  0.9,                                    ! Thermal Absorptance
  0.92,                                   ! Solar Absorptance
  0.92;                                   ! Visible Absorptance

OS:Material,
  {0664d5ea-b08a-4065-a52a-2972bf9f284a}, ! Handle
  8IN Concrete HW,                        ! Name
  MediumRough,                            ! Roughness
  0.2033,                                 ! Thickness {m}
  1.7296,                                 ! Conductivity {W/m-K}
  2243,                                   ! Density {kg/m3}
  837,                                    ! Specific Heat {J/kg-K}
  0.9,                                    ! Thermal Absorptance
  0.65,                                   ! Solar Absorptance
  0.65;                                   ! Visible Absorptance

OS:ComponentCost:LineItem,
  {d01511d3-4ce0-4095-b3ef-0fd8e0db7a6e}, ! Handle
  90.1-1999 Res B14 Ext Wall Mass,        ! Name
  ,                                       ! Type
  Construction,                           ! Line Item Type
  90.1-1999 Res B14 Ext Wall Mass,        ! Item Name
  ,                                       ! Object End Use Key
  ,                                       ! Quantity {dimensionless}
  63.663,                                 ! Material Cost {$}
  CostPerArea;                            ! Material Cost Units

OS:Material,
  {dcb3e123-f327-48c8-af64-e41091526d7a}, ! Handle
  1/2IN Gypsum,                           ! Name
  Smooth,                                 ! Roughness
  0.01271,                                ! Thickness {m}
  0.16,                                   ! Conductivity {W/m-K}
  784.9,                                  ! Density {kg/m3}
  830,                                    ! Specific Heat {J/kg-K}
  0.9,                                    ! Thermal Absorptance
  0.92,                                   ! Solar Absorptance
  0.92;                                   ! Visible Absorptance

OS:Construction,
  {e18c1bb5-4422-4cbd-b85b-e85f32a3cef9}, ! Handle
  90.1-1999 Res B14 Ext Wall Mass,        ! Name
  ,                                       ! Surface Rendering Name
  {f9cc9849-d056-44f1-931c-7569efc7a517}, ! Layer 1
  {0664d5ea-b08a-4065-a52a-2972bf9f284a}, ! Layer 2
  {fca65f9c-fae6-4bf8-93e2-ed8c26a53939}, ! Layer 3
  {dcb3e123-f327-48c8-af64-e41091526d7a}; ! Layer 4

