
OS:Version,
  {5a9e7192-e3d9-415c-9f3b-a87e778b21df}, ! Handle
  0.9.3;                                  ! Version Identifier

OS:Construction,
  {f1c4088c-69cc-42bc-9659-bd29401ea0cc}, ! Handle
  90.1-2001 Res B20 Roof Attic and Other, ! Name
  ,                                       ! Surface Rendering Name
  {9787649c-e578-4915-9d3c-9f7337487608}, ! Layer 1
  {5c4e196c-3f8a-4675-a944-7e1bdbc807ab}, ! Layer 2
  {c77b5ce5-4a7b-456e-95da-494b01419a5d}, ! Layer 3
  {7e4f0c9b-5869-4c3a-bf3f-9fa19e4b090b}; ! Layer 4

OS:Material,
  {9787649c-e578-4915-9d3c-9f7337487608}, ! Handle
  Wood Shingles,                          ! Name
  VeryRough,                              ! Roughness
  0.0178,                                 ! Thickness {m}
  0.115,                                  ! Conductivity {W/m-K}
  513,                                    ! Density {kg/m3}
  1255,                                   ! Specific Heat {J/kg-K}
  0.9,                                    ! Thermal Absorptance
  0.78,                                   ! Solar Absorptance
  0.78;                                   ! Visible Absorptance

OS:Material,
  {5c4e196c-3f8a-4675-a944-7e1bdbc807ab}, ! Handle
  1IN Wood Decking,                       ! Name
  MediumSmooth,                           ! Roughness
  0.0254,                                 ! Thickness {m}
  0.1211,                                 ! Conductivity {W/m-K}
  593,                                    ! Density {kg/m3}
  2510,                                   ! Specific Heat {J/kg-K}
  0.9,                                    ! Thermal Absorptance
  0.78,                                   ! Solar Absorptance
  0.78;                                   ! Visible Absorptance

OS:Material,
  {c77b5ce5-4a7b-456e-95da-494b01419a5d}, ! Handle
  Roof Insulation [5],                    ! Name
  MediumRough,                            ! Roughness
  0.286906,                               ! Thickness {m}
  0.049,                                  ! Conductivity {W/m-K}
  265,                                    ! Density {kg/m3}
  836.8,                                  ! Specific Heat {J/kg-K}
  0.9,                                    ! Thermal Absorptance
  0.7,                                    ! Solar Absorptance
  0.7;                                    ! Visible Absorptance

OS:Material,
  {7e4f0c9b-5869-4c3a-bf3f-9fa19e4b090b}, ! Handle
  1/2IN Gypsum,                           ! Name
  Smooth,                                 ! Roughness
  0.01271,                                ! Thickness {m}
  0.16,                                   ! Conductivity {W/m-K}
  784.9,                                  ! Density {kg/m3}
  830,                                    ! Specific Heat {J/kg-K}
  0.9,                                    ! Thermal Absorptance
  0.92,                                   ! Solar Absorptance
  0.92;                                   ! Visible Absorptance

OS:ComponentCost:LineItem,
  {2561bbd2-cfc3-4b69-ab98-555d805abcee}, ! Handle
  90.1-2001 Res B20 Roof Attic and Other, ! Name
  ,                                       ! Type
  Construction,                           ! Line Item Type
  90.1-2001 Res B20 Roof Attic and Other, ! Item Name
  ,                                       ! Object End Use Key
  ,                                       ! Quantity {dimensionless}
  34.757,                                 ! Material Cost {$}
  CostPerArea;                            ! Material Cost Units

OS:ComponentData,
  {c280212b-e229-425c-b08e-8abb72d28d50}, ! Handle
  Component Data 1,                       ! Name
  {c4a7b5a2-577a-4ccc-8170-3e7c3d7dc549}, ! UUID
  {d336b82c-af0a-42ee-9a1c-12209de7c6ce}, ! Version UUID
  1363981573,                             ! Creation Timestamp
  1363981573,                             ! Version Timestamp
  {f1c4088c-69cc-42bc-9659-bd29401ea0cc}, ! Name of Object 1
  {9787649c-e578-4915-9d3c-9f7337487608}, ! Name of Object 2
  {5c4e196c-3f8a-4675-a944-7e1bdbc807ab}, ! Name of Object 3
  {c77b5ce5-4a7b-456e-95da-494b01419a5d}, ! Name of Object 4
  {7e4f0c9b-5869-4c3a-bf3f-9fa19e4b090b}, ! Name of Object 5
  {2561bbd2-cfc3-4b69-ab98-555d805abcee}; ! Name of Object 6

