
OS:Version,
  {81b273e9-e8c9-4362-a3d3-07d05dbf6990}, ! Handle
  0.9.3;                                  ! Version Identifier

OS:Construction,
  {d638c148-2db8-4fa4-a1ee-07fca651c119}, ! Handle
  90.1-2007 Res 5B Int Wall,              ! Name
  ,                                       ! Surface Rendering Name
  {bdcae2cd-910a-4d2f-9a38-59a7a5fba8d5}, ! Layer 1
  {bdcae2cd-910a-4d2f-9a38-59a7a5fba8d5}; ! Layer 2

OS:Material,
  {bdcae2cd-910a-4d2f-9a38-59a7a5fba8d5}, ! Handle
  GP01 1/2 GYPSUM,                        ! Name
  Smooth,                                 ! Roughness
  0.01271,                                ! Thickness {m}
  0.16,                                   ! Conductivity {W/m-K}
  800,                                    ! Density {kg/m3}
  1090,                                   ! Specific Heat {J/kg-K}
  0.9,                                    ! Thermal Absorptance
  0.7,                                    ! Solar Absorptance
  0.5;                                    ! Visible Absorptance

OS:ComponentCost:LineItem,
  {02c0a38f-648b-4be7-acad-37ef8a1fad2b}, ! Handle
  90.1-2007 Res 5B Int Wall,              ! Name
  ,                                       ! Type
  Construction,                           ! Line Item Type
  90.1-2007 Res 5B Int Wall,              ! Item Name
  ,                                       ! Object End Use Key
  ,                                       ! Quantity {dimensionless}
  0,                                      ! Material Cost {$}
  CostPerArea;                            ! Material Cost Units

OS:ComponentData,
  {3a76bc79-19ec-4cdb-b829-de596b09746c}, ! Handle
  Component Data 1,                       ! Name
  {66e7894d-907e-4612-b87a-5427242fec9a}, ! UUID
  {7f2b1819-aff5-4150-8558-a9e02883302e}, ! Version UUID
  1363981856,                             ! Creation Timestamp
  1363981856,                             ! Version Timestamp
  {d638c148-2db8-4fa4-a1ee-07fca651c119}, ! Name of Object 1
  {bdcae2cd-910a-4d2f-9a38-59a7a5fba8d5}, ! Name of Object 2
  {02c0a38f-648b-4be7-acad-37ef8a1fad2b}; ! Name of Object 3

