
OS:Version,
  {33a98cee-1498-4425-b4b5-967afaa6ee33}, ! Handle
  0.9.3;                                  ! Version Identifier

OS:Material,
  {f854f3f2-0c68-482e-9827-32d5c5e42025}, ! Handle
  GP01 1/2 GYPSUM,                        ! Name
  Smooth,                                 ! Roughness
  0.01271,                                ! Thickness {m}
  0.16,                                   ! Conductivity {W/m-K}
  800,                                    ! Density {kg/m3}
  1090,                                   ! Specific Heat {J/kg-K}
  0.9,                                    ! Thermal Absorptance
  0.7,                                    ! Solar Absorptance
  0.5;                                    ! Visible Absorptance

OS:Construction,
  {2fda90a1-ae98-4177-a4a4-3df7cef0abb8}, ! Handle
  90.1-2007 Res 5B Int Wall,              ! Name
  ,                                       ! Surface Rendering Name
  {f854f3f2-0c68-482e-9827-32d5c5e42025}, ! Layer 1
  {f854f3f2-0c68-482e-9827-32d5c5e42025}; ! Layer 2

OS:ComponentCost:LineItem,
  {03eef8ca-18c9-4f66-87d7-9f71ab30b614}, ! Handle
  90.1-2007 Res 5B Int Wall,              ! Name
  ,                                       ! Type
  Construction,                           ! Line Item Type
  90.1-2007 Res 5B Int Wall,              ! Item Name
  ,                                       ! Object End Use Key
  ,                                       ! Quantity {dimensionless}
  0,                                      ! Material Cost {$}
  CostPerArea;                            ! Material Cost Units

OS:Material,
  {bcf8b11f-b3ac-4218-be18-0605336315f3}, ! Handle
  GP01 1/2 GYPSUM 1,                      ! Name
  Smooth,                                 ! Roughness
  0.01271,                                ! Thickness {m}
  0.16,                                   ! Conductivity {W/m-K}
  800,                                    ! Density {kg/m3}
  1090,                                   ! Specific Heat {J/kg-K}
  0.9,                                    ! Thermal Absorptance
  0.7,                                    ! Solar Absorptance
  0.5;                                    ! Visible Absorptance

