
OS:Version,
  {4f30719c-1f53-433b-b6b1-24b35c8d544f}, ! Handle
  0.9.3;                                  ! Version Identifier

OS:Construction,
  {b3864cbe-ecae-4174-a7cc-0b7b76e102ae}, ! Handle
  90.1-2001 Nonres B11 Ext Wall Wood-Framed and Other, ! Name
  ,                                       ! Surface Rendering Name
  {fba2dd53-2192-453d-9c50-2acc8d61f890}, ! Layer 1
  {57cb5505-8360-425b-9798-eaa3cc23f6ca}, ! Layer 2
  {e40c2fef-13be-495a-ba61-479b93d0f894}; ! Layer 3

OS:Material,
  {fba2dd53-2192-453d-9c50-2acc8d61f890}, ! Handle
  Wood Siding,                            ! Name
  MediumSmooth,                           ! Roughness
  0.01,                                   ! Thickness {m}
  0.11,                                   ! Conductivity {W/m-K}
  544.62,                                 ! Density {kg/m3}
  1210,                                   ! Specific Heat {J/kg-K}
  0.9,                                    ! Thermal Absorptance
  0.78,                                   ! Solar Absorptance
  0.78;                                   ! Visible Absorptance

OS:Material,
  {57cb5505-8360-425b-9798-eaa3cc23f6ca}, ! Handle
  Wall Insulation [2],                    ! Name
  MediumRough,                            ! Roughness
  0.0746874,                              ! Thickness {m}
  0.045,                                  ! Conductivity {W/m-K}
  265,                                    ! Density {kg/m3}
  836.8,                                  ! Specific Heat {J/kg-K}
  0.9,                                    ! Thermal Absorptance
  0.7,                                    ! Solar Absorptance
  0.7;                                    ! Visible Absorptance

OS:Material,
  {e40c2fef-13be-495a-ba61-479b93d0f894}, ! Handle
  1/2IN Gypsum,                           ! Name
  Smooth,                                 ! Roughness
  0.01271,                                ! Thickness {m}
  0.16,                                   ! Conductivity {W/m-K}
  784.9,                                  ! Density {kg/m3}
  830,                                    ! Specific Heat {J/kg-K}
  0.9,                                    ! Thermal Absorptance
  0.92,                                   ! Solar Absorptance
  0.92;                                   ! Visible Absorptance

OS:ComponentCost:LineItem,
  {c2c23346-0ccf-4c63-b3f0-30f0378af633}, ! Handle
  90.1-2001 Nonres B11 Ext Wall Wood-Framed and Other, ! Name
  ,                                       ! Type
  Construction,                           ! Line Item Type
  90.1-2001 Nonres B11 Ext Wall Wood-Framed and Other, ! Item Name
  ,                                       ! Object End Use Key
  ,                                       ! Quantity {dimensionless}
  73.056,                                 ! Material Cost {$}
  CostPerArea;                            ! Material Cost Units

