
OS:Version,
  {f26afa76-baed-480d-a3c9-be7fd5ce6b07}, ! Handle
  0.9.3;                                  ! Version Identifier

OS:Material,
  {8e97f9b5-fee2-4342-8ec1-208ec4a1c527}, ! Handle
  8IN Concrete HW,                        ! Name
  MediumRough,                            ! Roughness
  0.2033,                                 ! Thickness {m}
  1.7296,                                 ! Conductivity {W/m-K}
  2243,                                   ! Density {kg/m3}
  837,                                    ! Specific Heat {J/kg-K}
  0.9,                                    ! Thermal Absorptance
  0.65,                                   ! Solar Absorptance
  0.65;                                   ! Visible Absorptance

OS:Material,
  {c2ee85dc-3c9a-47ba-9544-1eb73afb2956}, ! Handle
  1IN Stucco,                             ! Name
  Smooth,                                 ! Roughness
  0.0253,                                 ! Thickness {m}
  0.6918,                                 ! Conductivity {W/m-K}
  1858,                                   ! Density {kg/m3}
  837,                                    ! Specific Heat {J/kg-K}
  0.9,                                    ! Thermal Absorptance
  0.92,                                   ! Solar Absorptance
  0.92;                                   ! Visible Absorptance

OS:Construction,
  {bac141b0-c21b-46c9-8e01-6aa89436b9d8}, ! Handle
  90.1-2001 Nonres B9 Ext Wall Mass,      ! Name
  ,                                       ! Surface Rendering Name
  {c2ee85dc-3c9a-47ba-9544-1eb73afb2956}, ! Layer 1
  {8e97f9b5-fee2-4342-8ec1-208ec4a1c527}, ! Layer 2
  {d1fd4e62-60c5-40e4-a52a-904e0369c98c}; ! Layer 3

OS:Material,
  {d1fd4e62-60c5-40e4-a52a-904e0369c98c}, ! Handle
  1/2IN Gypsum,                           ! Name
  Smooth,                                 ! Roughness
  0.01271,                                ! Thickness {m}
  0.16,                                   ! Conductivity {W/m-K}
  784.9,                                  ! Density {kg/m3}
  830,                                    ! Specific Heat {J/kg-K}
  0.9,                                    ! Thermal Absorptance
  0.92,                                   ! Solar Absorptance
  0.92;                                   ! Visible Absorptance

OS:ComponentCost:LineItem,
  {6c100633-1d80-4b77-a25c-0b77602bd786}, ! Handle
  90.1-2001 Nonres B9 Ext Wall Mass,      ! Name
  ,                                       ! Type
  Construction,                           ! Line Item Type
  90.1-2001 Nonres B9 Ext Wall Mass,      ! Item Name
  ,                                       ! Object End Use Key
  ,                                       ! Quantity {dimensionless}
  41.397,                                 ! Material Cost {$}
  CostPerArea;                            ! Material Cost Units

