
OS:Version,
  {56a8354c-5ad9-4ee4-b1df-0ba07ed248f6}, ! Handle
  0.9.3;                                  ! Version Identifier

OS:Construction,
  {1116da46-6e5c-436d-ad94-8950edabb54c}, ! Handle
  90.1-2001 Res B17 Int Wall,             ! Name
  ,                                       ! Surface Rendering Name
  {8cfd49da-7a6f-40f3-b191-0f574e972b8b}, ! Layer 1
  {8cfd49da-7a6f-40f3-b191-0f574e972b8b}; ! Layer 2

OS:Material,
  {8cfd49da-7a6f-40f3-b191-0f574e972b8b}, ! Handle
  GP01 1/2 GYPSUM,                        ! Name
  Smooth,                                 ! Roughness
  0.01271,                                ! Thickness {m}
  0.16,                                   ! Conductivity {W/m-K}
  800,                                    ! Density {kg/m3}
  1090,                                   ! Specific Heat {J/kg-K}
  0.9,                                    ! Thermal Absorptance
  0.7,                                    ! Solar Absorptance
  0.5;                                    ! Visible Absorptance

OS:ComponentCost:LineItem,
  {29a1df97-31e0-4ec9-ab4f-0b772a4e9106}, ! Handle
  90.1-2001 Res B17 Int Wall,             ! Name
  ,                                       ! Type
  Construction,                           ! Line Item Type
  90.1-2001 Res B17 Int Wall,             ! Item Name
  ,                                       ! Object End Use Key
  ,                                       ! Quantity {dimensionless}
  0,                                      ! Material Cost {$}
  CostPerArea;                            ! Material Cost Units

OS:Material,
  {b10b8c3c-f5aa-4ab0-a3fe-fedb93a929b1}, ! Handle
  GP01 1/2 GYPSUM 1,                      ! Name
  Smooth,                                 ! Roughness
  0.01271,                                ! Thickness {m}
  0.16,                                   ! Conductivity {W/m-K}
  800,                                    ! Density {kg/m3}
  1090,                                   ! Specific Heat {J/kg-K}
  0.9,                                    ! Thermal Absorptance
  0.7,                                    ! Solar Absorptance
  0.5;                                    ! Visible Absorptance

