
OS:Version,
  {f462c6e8-3840-435a-a304-918a43449d14}, ! Handle
  0.9.3;                                  ! Version Identifier

OS:Material,
  {3fd58832-7c68-4bb7-8def-73efef3cf015}, ! Handle
  MAT-CC05 8 HW CONCRETE,                 ! Name
  Rough,                                  ! Roughness
  0.20321,                                ! Thickness {m}
  1.311,                                  ! Conductivity {W/m-K}
  2240,                                   ! Density {kg/m3}
  836.8,                                  ! Specific Heat {J/kg-K}
  0.9,                                    ! Thermal Absorptance
  0.7,                                    ! Solar Absorptance
  0.7;                                    ! Visible Absorptance

OS:ComponentCost:LineItem,
  {c0f7da46-e892-4ac6-8819-387b29c589a9}, ! Handle
  Title 24-2008 Nonres 7 Ext Slab Unheated - 8in Slab without Carpet, ! Name
  ,                                       ! Type
  Construction,                           ! Line Item Type
  Title 24-2008 Nonres 7 Ext Slab Unheated - 8in Slab without Carpet, ! Item Name
  ,                                       ! Object End Use Key
  ,                                       ! Quantity {dimensionless}
  45.52,                                  ! Material Cost {$}
  CostPerArea;                            ! Material Cost Units

OS:Construction,
  {2de65050-bfa3-4a3e-891f-1648e3413bcb}, ! Handle
  Title 24-2008 Nonres 7 Ext Slab Unheated - 8in Slab without Carpet, ! Name
  ,                                       ! Surface Rendering Name
  {3fd58832-7c68-4bb7-8def-73efef3cf015}; ! Layer 1

