
OS:Version,
  {6dfc81d8-863b-4aa2-bbea-1a5ae1ecdd28}, ! Handle
  0.9.3;                                  ! Version Identifier

OS:Construction,
  {ce82ad33-be55-4cc3-a815-7f1521ec7488}, ! Handle
  Title 24-2008 Nonres 7 Ext Slab Unheated - 8in Slab without Carpet, ! Name
  ,                                       ! Surface Rendering Name
  {441b670b-2b80-4bf8-b00b-f9af25b5377e}; ! Layer 1

OS:Material,
  {441b670b-2b80-4bf8-b00b-f9af25b5377e}, ! Handle
  MAT-CC05 8 HW CONCRETE,                 ! Name
  Rough,                                  ! Roughness
  0.20321,                                ! Thickness {m}
  1.311,                                  ! Conductivity {W/m-K}
  2240,                                   ! Density {kg/m3}
  836.8,                                  ! Specific Heat {J/kg-K}
  0.9,                                    ! Thermal Absorptance
  0.7,                                    ! Solar Absorptance
  0.7;                                    ! Visible Absorptance

OS:ComponentCost:LineItem,
  {599bcc72-681a-4c41-bc5d-b00ece8fbe4a}, ! Handle
  Title 24-2008 Nonres 7 Ext Slab Unheated - 8in Slab without Carpet, ! Name
  ,                                       ! Type
  Construction,                           ! Line Item Type
  Title 24-2008 Nonres 7 Ext Slab Unheated - 8in Slab without Carpet, ! Item Name
  ,                                       ! Object End Use Key
  ,                                       ! Quantity {dimensionless}
  45.52,                                  ! Material Cost {$}
  CostPerArea;                            ! Material Cost Units

OS:ComponentData,
  {b79a4dde-4379-4403-a131-c2f397002e9a}, ! Handle
  Component Data 1,                       ! Name
  {ba9b2588-2e1c-4e18-a122-888cc30ea6c3}, ! UUID
  {42afb7c8-28f1-43dc-b80e-1db8e9c4100f}, ! Version UUID
  1363982039,                             ! Creation Timestamp
  1363982039,                             ! Version Timestamp
  {ce82ad33-be55-4cc3-a815-7f1521ec7488}, ! Name of Object 1
  {441b670b-2b80-4bf8-b00b-f9af25b5377e}, ! Name of Object 2
  {599bcc72-681a-4c41-bc5d-b00ece8fbe4a}; ! Name of Object 3

