
OS:Version,
  {67a712a0-d2c8-4c14-91f3-adebab788e78}, ! Handle
  0.9.3;                                  ! Version Identifier

OS:Construction,
  {7e462268-12e1-444d-93d1-fe21b6347f42}, ! Handle
  AEDG-SmOffice 2A Ext Wall Wood-Framed and Other, ! Name
  ,                                       ! Surface Rendering Name
  {fa79e6f8-3f77-4146-8916-80f01040dbd2}, ! Layer 1
  {19add2ce-66c0-4fc5-b941-359ce877d16d}, ! Layer 2
  {9cabd17e-e21e-41a4-9d9f-45bde91b68ec}; ! Layer 3

OS:Material,
  {fa79e6f8-3f77-4146-8916-80f01040dbd2}, ! Handle
  Wood Siding,                            ! Name
  MediumSmooth,                           ! Roughness
  0.01,                                   ! Thickness {m}
  0.11,                                   ! Conductivity {W/m-K}
  544.62,                                 ! Density {kg/m3}
  1210,                                   ! Specific Heat {J/kg-K}
  0.9,                                    ! Thermal Absorptance
  0.78,                                   ! Solar Absorptance
  0.78;                                   ! Visible Absorptance

OS:Material,
  {19add2ce-66c0-4fc5-b941-359ce877d16d}, ! Handle
  Wall Insulation [2],                    ! Name
  MediumRough,                            ! Roughness
  0.0746874,                              ! Thickness {m}
  0.045,                                  ! Conductivity {W/m-K}
  265,                                    ! Density {kg/m3}
  836.8,                                  ! Specific Heat {J/kg-K}
  0.9,                                    ! Thermal Absorptance
  0.7,                                    ! Solar Absorptance
  0.7;                                    ! Visible Absorptance

OS:Material,
  {9cabd17e-e21e-41a4-9d9f-45bde91b68ec}, ! Handle
  1/2IN Gypsum,                           ! Name
  Smooth,                                 ! Roughness
  0.01271,                                ! Thickness {m}
  0.16,                                   ! Conductivity {W/m-K}
  784.9,                                  ! Density {kg/m3}
  830,                                    ! Specific Heat {J/kg-K}
  0.9,                                    ! Thermal Absorptance
  0.92,                                   ! Solar Absorptance
  0.92;                                   ! Visible Absorptance

OS:ComponentCost:LineItem,
  {3bb19cc2-deca-4c2b-ad28-4b0fb93e09b7}, ! Handle
  AEDG-SmOffice 2A Ext Wall Wood-Framed and Other, ! Name
  ,                                       ! Type
  Construction,                           ! Line Item Type
  AEDG-SmOffice 2A Ext Wall Wood-Framed and Other, ! Item Name
  ,                                       ! Object End Use Key
  ,                                       ! Quantity {dimensionless}
  73.056,                                 ! Material Cost {$}
  CostPerArea;                            ! Material Cost Units

