
OS:Version,
  {c67ea7a0-0780-4958-9604-e91d107ad916}, ! Handle
  0.9.3;                                  ! Version Identifier

OS:Material,
  {be72829a-1d79-461c-b117-bc6436944cf4}, ! Handle
  8IN Concrete HW,                        ! Name
  MediumRough,                            ! Roughness
  0.2033,                                 ! Thickness {m}
  1.7296,                                 ! Conductivity {W/m-K}
  2243,                                   ! Density {kg/m3}
  837,                                    ! Specific Heat {J/kg-K}
  0.9,                                    ! Thermal Absorptance
  0.65,                                   ! Solar Absorptance
  0.65;                                   ! Visible Absorptance

OS:Material,
  {bd589803-14f3-410f-85e6-a8455f32a558}, ! Handle
  1/2IN Gypsum,                           ! Name
  Smooth,                                 ! Roughness
  0.01271,                                ! Thickness {m}
  0.16,                                   ! Conductivity {W/m-K}
  784.9,                                  ! Density {kg/m3}
  830,                                    ! Specific Heat {J/kg-K}
  0.9,                                    ! Thermal Absorptance
  0.92,                                   ! Solar Absorptance
  0.92;                                   ! Visible Absorptance

OS:Construction,
  {c6b90e08-f785-4515-af8b-5d01a8861bd1}, ! Handle
  90.1-2001 Res B20 Ext Wall Mass,        ! Name
  ,                                       ! Surface Rendering Name
  {79b5fcce-be8c-40b4-96a0-5e8c626ba75e}, ! Layer 1
  {be72829a-1d79-461c-b117-bc6436944cf4}, ! Layer 2
  {de037852-c1bb-4ef8-8fc0-aace45966008}, ! Layer 3
  {bd589803-14f3-410f-85e6-a8455f32a558}; ! Layer 4

OS:Material,
  {79b5fcce-be8c-40b4-96a0-5e8c626ba75e}, ! Handle
  1IN Stucco,                             ! Name
  Smooth,                                 ! Roughness
  0.0253,                                 ! Thickness {m}
  0.6918,                                 ! Conductivity {W/m-K}
  1858,                                   ! Density {kg/m3}
  837,                                    ! Specific Heat {J/kg-K}
  0.9,                                    ! Thermal Absorptance
  0.92,                                   ! Solar Absorptance
  0.92;                                   ! Visible Absorptance

OS:Material,
  {de037852-c1bb-4ef8-8fc0-aace45966008}, ! Handle
  Wall Insulation [8],                    ! Name
  MediumRough,                            ! Roughness
  0.067929,                               ! Thickness {m}
  0.0432,                                 ! Conductivity {W/m-K}
  91,                                     ! Density {kg/m3}
  837,                                    ! Specific Heat {J/kg-K}
  0.9,                                    ! Thermal Absorptance
  0.5,                                    ! Solar Absorptance
  0.5;                                    ! Visible Absorptance

OS:ComponentCost:LineItem,
  {5347852d-eddc-4b39-a8fb-1e6f73f29f45}, ! Handle
  90.1-2001 Res B20 Ext Wall Mass,        ! Name
  ,                                       ! Type
  Construction,                           ! Line Item Type
  90.1-2001 Res B20 Ext Wall Mass,        ! Item Name
  ,                                       ! Object End Use Key
  ,                                       ! Quantity {dimensionless}
  65.826,                                 ! Material Cost {$}
  CostPerArea;                            ! Material Cost Units

