
OS:Version,
  {17919d9a-689f-4f68-81bd-f5cb3a80c188}, ! Handle
  0.9.3;                                  ! Version Identifier

OS:Construction,
  {6970a140-f7b9-4bc2-9967-0188f45a09ca}, ! Handle
  90.1-2001 Res B13 Int Wall,             ! Name
  ,                                       ! Surface Rendering Name
  {5fe1cd8a-d8bd-4c50-a62a-90d8750fa778}, ! Layer 1
  {5fe1cd8a-d8bd-4c50-a62a-90d8750fa778}; ! Layer 2

OS:Material,
  {5fe1cd8a-d8bd-4c50-a62a-90d8750fa778}, ! Handle
  GP01 1/2 GYPSUM,                        ! Name
  Smooth,                                 ! Roughness
  0.01271,                                ! Thickness {m}
  0.16,                                   ! Conductivity {W/m-K}
  800,                                    ! Density {kg/m3}
  1090,                                   ! Specific Heat {J/kg-K}
  0.9,                                    ! Thermal Absorptance
  0.7,                                    ! Solar Absorptance
  0.5;                                    ! Visible Absorptance

OS:ComponentCost:LineItem,
  {32291cca-2918-4e7c-aa1b-30618f69b328}, ! Handle
  90.1-2001 Res B13 Int Wall,             ! Name
  ,                                       ! Type
  Construction,                           ! Line Item Type
  90.1-2001 Res B13 Int Wall,             ! Item Name
  ,                                       ! Object End Use Key
  ,                                       ! Quantity {dimensionless}
  0,                                      ! Material Cost {$}
  CostPerArea;                            ! Material Cost Units

OS:ComponentData,
  {337531a7-6aa3-431a-b170-180cbdb66ca2}, ! Handle
  Component Data 1,                       ! Name
  {5407cc7e-0a0a-4b6c-bdc3-41551d90be64}, ! UUID
  {6d1588d4-5154-432f-b182-09ceb94f3390}, ! Version UUID
  1363981520,                             ! Creation Timestamp
  1363981520,                             ! Version Timestamp
  {6970a140-f7b9-4bc2-9967-0188f45a09ca}, ! Name of Object 1
  {5fe1cd8a-d8bd-4c50-a62a-90d8750fa778}, ! Name of Object 2
  {32291cca-2918-4e7c-aa1b-30618f69b328}; ! Name of Object 3

