
OS:Version,
  {994cc01e-b657-4ca5-8b31-fcb7c4fca345}, ! Handle
  0.9.3;                                  ! Version Identifier

OS:Construction,
  {1bcaa35b-5c38-4100-a6e1-2239feed9100}, ! Handle
  90.1-2004 Nonres 3A Door Non-Swinging,  ! Name
  ,                                       ! Surface Rendering Name
  {5bcd9824-1731-40f3-b700-c53bb118aad6}, ! Layer 1
  {bfecfdf1-945c-459a-81b9-1d7bccaf52f9}, ! Layer 2
  {a0ceddc1-55e7-4fbf-81cd-2bfdc86c9870}; ! Layer 3

OS:Material,
  {5bcd9824-1731-40f3-b700-c53bb118aad6}, ! Handle
  METAL Door Medium 18Ga_1,               ! Name
  Smooth,                                 ! Roughness
  0.0013106,                              ! Thickness {m}
  45.3149,                                ! Conductivity {W/m-K}
  7833.03,                                ! Density {kg/m3}
  502.08,                                 ! Specific Heat {J/kg-K}
  0.8,                                    ! Thermal Absorptance
  0.5,                                    ! Solar Absorptance
  0.5;                                    ! Visible Absorptance

OS:Material:NoMass,
  {bfecfdf1-945c-459a-81b9-1d7bccaf52f9}, ! Handle
  AIR [1],                                ! Name
  Smooth,                                 ! Roughness
  0.121409,                               ! Thermal Resistance {m2-K/W}
  0.8,                                    ! Thermal Absorptance
  0.5,                                    ! Solar Absorptance
  0.5;                                    ! Visible Absorptance

OS:Material,
  {a0ceddc1-55e7-4fbf-81cd-2bfdc86c9870}, ! Handle
  METAL Door Medium 18Ga_2,               ! Name
  Smooth,                                 ! Roughness
  0.0013106,                              ! Thickness {m}
  45.3149,                                ! Conductivity {W/m-K}
  7833.03,                                ! Density {kg/m3}
  502.08,                                 ! Specific Heat {J/kg-K}
  0.8,                                    ! Thermal Absorptance
  0.5,                                    ! Solar Absorptance
  0.5;                                    ! Visible Absorptance

OS:ComponentCost:LineItem,
  {ef7d482d-08ed-4caf-9b36-9991ebb7f04e}, ! Handle
  90.1-2004 Nonres 3A Door Non-Swinging,  ! Name
  ,                                       ! Type
  Construction,                           ! Line Item Type
  90.1-2004 Nonres 3A Door Non-Swinging,  ! Item Name
  ,                                       ! Object End Use Key
  ,                                       ! Quantity {dimensionless}
  0,                                      ! Material Cost {$}
  CostPerArea;                            ! Material Cost Units

OS:ComponentData,
  {a0b41b2c-aa3f-4bb5-a977-ae4f48b679d3}, ! Handle
  Component Data 1,                       ! Name
  {7acf2afb-b5b9-42c0-9bd8-28c539aa0829}, ! UUID
  {121852cd-d375-4d72-9083-4674d7ee06c7}, ! Version UUID
  1363981649,                             ! Creation Timestamp
  1363981649,                             ! Version Timestamp
  {1bcaa35b-5c38-4100-a6e1-2239feed9100}, ! Name of Object 1
  {5bcd9824-1731-40f3-b700-c53bb118aad6}, ! Name of Object 2
  {bfecfdf1-945c-459a-81b9-1d7bccaf52f9}, ! Name of Object 3
  {a0ceddc1-55e7-4fbf-81cd-2bfdc86c9870}, ! Name of Object 4
  {ef7d482d-08ed-4caf-9b36-9991ebb7f04e}; ! Name of Object 5

