
OS:Version,
  {89be4cee-6e8a-4935-bb06-4d1914bd6d09}, ! Handle
  0.9.3;                                  ! Version Identifier

OS:Material:NoMass,
  {f11f7e79-1d66-4dcf-9b06-8e7f8ddcfcfe}, ! Handle
  MAT-SHEATH,                             ! Name
  Rough,                                  ! Roughness
  0.36256,                                ! Thermal Resistance {m2-K/W}
  0.9,                                    ! Thermal Absorptance
  0.7,                                    ! Solar Absorptance
  0.7;                                    ! Visible Absorptance

OS:ComponentCost:LineItem,
  {c25212dd-ad45-4777-83b4-ede2e48954d8}, ! Handle
  90.1-1999 Nonres B4 Ext Wall Steel-Framed, ! Name
  ,                                       ! Type
  Construction,                           ! Line Item Type
  90.1-1999 Nonres B4 Ext Wall Steel-Framed, ! Item Name
  ,                                       ! Object End Use Key
  ,                                       ! Quantity {dimensionless}
  87.08,                                  ! Material Cost {$}
  CostPerArea;                            ! Material Cost Units

OS:Material,
  {a1a90e3b-8656-4c57-b587-3243441df97e}, ! Handle
  Wall Insulation [1],                    ! Name
  MediumRough,                            ! Roughness
  0.0373223,                              ! Thickness {m}
  0.045,                                  ! Conductivity {W/m-K}
  265,                                    ! Density {kg/m3}
  836.8,                                  ! Specific Heat {J/kg-K}
  0.9,                                    ! Thermal Absorptance
  0.7,                                    ! Solar Absorptance
  0.7;                                    ! Visible Absorptance

OS:Material,
  {4e76c57d-1d8f-4160-8365-71b2137d8e8d}, ! Handle
  1/2IN Gypsum,                           ! Name
  Smooth,                                 ! Roughness
  0.01271,                                ! Thickness {m}
  0.16,                                   ! Conductivity {W/m-K}
  784.9,                                  ! Density {kg/m3}
  830,                                    ! Specific Heat {J/kg-K}
  0.9,                                    ! Thermal Absorptance
  0.92,                                   ! Solar Absorptance
  0.92;                                   ! Visible Absorptance

OS:Construction,
  {d55c2f07-da41-49e9-bb44-1cee798427c1}, ! Handle
  90.1-1999 Nonres B4 Ext Wall Steel-Framed, ! Name
  ,                                       ! Surface Rendering Name
  {f11f7e79-1d66-4dcf-9b06-8e7f8ddcfcfe}, ! Layer 1
  {a1a90e3b-8656-4c57-b587-3243441df97e}, ! Layer 2
  {4e76c57d-1d8f-4160-8365-71b2137d8e8d}; ! Layer 3

