
OS:Version,
  {ff7d8a02-7524-418f-8e7f-6bf183f848bd}, ! Handle
  0.9.3;                                  ! Version Identifier

OS:ComponentCost:LineItem,
  {66c373ef-cd2b-46e6-9c6a-eb4f47461277}, ! Handle
  90.1-1999 Res B3 Roof Attic and Other,  ! Name
  ,                                       ! Type
  Construction,                           ! Line Item Type
  90.1-1999 Res B3 Roof Attic and Other,  ! Item Name
  ,                                       ! Object End Use Key
  ,                                       ! Quantity {dimensionless}
  33.39,                                  ! Material Cost {$}
  CostPerArea;                            ! Material Cost Units

OS:Material,
  {0366dad1-4cf7-4f26-96f0-0cf577fe7197}, ! Handle
  Wood Shingles,                          ! Name
  VeryRough,                              ! Roughness
  0.0178,                                 ! Thickness {m}
  0.115,                                  ! Conductivity {W/m-K}
  513,                                    ! Density {kg/m3}
  1255,                                   ! Specific Heat {J/kg-K}
  0.9,                                    ! Thermal Absorptance
  0.78,                                   ! Solar Absorptance
  0.78;                                   ! Visible Absorptance

OS:Material,
  {f4f5c830-48fe-4d51-8e37-6727e7c3c8aa}, ! Handle
  Roof Insulation [2],                    ! Name
  MediumRough,                            ! Roughness
  0.221604,                               ! Thickness {m}
  0.049,                                  ! Conductivity {W/m-K}
  265,                                    ! Density {kg/m3}
  836.8,                                  ! Specific Heat {J/kg-K}
  0.9,                                    ! Thermal Absorptance
  0.7,                                    ! Solar Absorptance
  0.7;                                    ! Visible Absorptance

OS:Material,
  {ddb2c031-0023-429b-b754-36586c4f9b3c}, ! Handle
  1IN Wood Decking,                       ! Name
  MediumSmooth,                           ! Roughness
  0.0254,                                 ! Thickness {m}
  0.1211,                                 ! Conductivity {W/m-K}
  593,                                    ! Density {kg/m3}
  2510,                                   ! Specific Heat {J/kg-K}
  0.9,                                    ! Thermal Absorptance
  0.78,                                   ! Solar Absorptance
  0.78;                                   ! Visible Absorptance

OS:Material,
  {784d1f47-aa5f-4f3b-9a25-9abf5aca6aca}, ! Handle
  1/2IN Gypsum,                           ! Name
  Smooth,                                 ! Roughness
  0.01271,                                ! Thickness {m}
  0.16,                                   ! Conductivity {W/m-K}
  784.9,                                  ! Density {kg/m3}
  830,                                    ! Specific Heat {J/kg-K}
  0.9,                                    ! Thermal Absorptance
  0.92,                                   ! Solar Absorptance
  0.92;                                   ! Visible Absorptance

OS:Construction,
  {e7a12f3a-6f90-4b74-92a6-d7478cacbd6d}, ! Handle
  90.1-1999 Res B3 Roof Attic and Other,  ! Name
  ,                                       ! Surface Rendering Name
  {0366dad1-4cf7-4f26-96f0-0cf577fe7197}, ! Layer 1
  {ddb2c031-0023-429b-b754-36586c4f9b3c}, ! Layer 2
  {f4f5c830-48fe-4d51-8e37-6727e7c3c8aa}, ! Layer 3
  {784d1f47-aa5f-4f3b-9a25-9abf5aca6aca}; ! Layer 4

