
OS:Version,
  {ef9fba61-e4c4-4977-af1c-1e21640b17e8}, !- Handle
  1.1.0;                                  !- Version Identifier

OS:Construction,
  {77ab2913-3ca9-4fbb-8b30-9e3aaeb41228}, !- Handle
  Dbl Elec Ref Bleached 6mm/13mm Air,     !- Name
  ,                                       !- Surface Rendering Name
  {43624c50-2319-4b01-9e8a-b520046d9453}, !- Layer 1
  {c1290b1c-a377-4767-ab2e-57a44c08d84c}, !- Layer 2
  {ebc447a0-8efd-44a6-9bc0-a33ba60f22f7}; !- Layer 3

OS:WindowMaterial:Glazing,
  {43624c50-2319-4b01-9e8a-b520046d9453}, !- Handle
  ECREF-2 BLEACHED 6MM,                   !- Name
  SpectralAverage,                        !- Optical Data Type
  ,                                       !- Window Glass Spectral Data Set Name
  0.006,                                  !- Thickness {m}
  0.694,                                  !- Solar Transmittance at Normal Incidence
  0.168,                                  !- Front Side Solar Reflectance at Normal Incidence
  0.168,                                  !- Back Side Solar Reflectance at Normal Incidence
  0.818,                                  !- Visible Transmittance at Normal Incidence
  0.11,                                   !- Front Side Visible Reflectance at Normal Incidence
  0.11,                                   !- Back Side Visible Reflectance at Normal Incidence
  0,                                      !- Infrared Transmittance at Normal Incidence
  0.84,                                   !- Front Side Infrared Hemispherical Emissivity
  0.1,                                    !- Back Side Infrared Hemispherical Emissivity
  0.9;                                    !- Conductivity {W/m-K}

OS:WindowMaterial:Gas,
  {c1290b1c-a377-4767-ab2e-57a44c08d84c}, !- Handle
  AIR 13MM,                               !- Name
  Air,                                    !- Gas Type
  0.0127;                                 !- Thickness {m}

OS:WindowMaterial:Glazing,
  {ebc447a0-8efd-44a6-9bc0-a33ba60f22f7}, !- Handle
  CLEAR 6MM,                              !- Name
  SpectralAverage,                        !- Optical Data Type
  ,                                       !- Window Glass Spectral Data Set Name
  0.006,                                  !- Thickness {m}
  0.775,                                  !- Solar Transmittance at Normal Incidence
  0.071,                                  !- Front Side Solar Reflectance at Normal Incidence
  0.071,                                  !- Back Side Solar Reflectance at Normal Incidence
  0.881,                                  !- Visible Transmittance at Normal Incidence
  0.08,                                   !- Front Side Visible Reflectance at Normal Incidence
  0.08,                                   !- Back Side Visible Reflectance at Normal Incidence
  0,                                      !- Infrared Transmittance at Normal Incidence
  0.84,                                   !- Front Side Infrared Hemispherical Emissivity
  0.84,                                   !- Back Side Infrared Hemispherical Emissivity
  0.9;                                    !- Conductivity {W/m-K}

