
OS:Version,
  {d98352c1-6043-45e4-aae4-ef817dfa6628}, ! Handle
  0.9.3;                                  ! Version Identifier

OS:Material,
  {6f573d65-c40c-46fe-9035-672c9155b003}, ! Handle
  Metal Decking,                          ! Name
  MediumSmooth,                           ! Roughness
  0.001524,                               ! Thickness {m}
  45.006,                                 ! Conductivity {W/m-K}
  7680,                                   ! Density {kg/m3}
  418.4,                                  ! Specific Heat {J/kg-K}
  0.9,                                    ! Thermal Absorptance
  0.7,                                    ! Solar Absorptance
  0.3;                                    ! Visible Absorptance

OS:Material,
  {cf228bbf-b87f-4ec1-9fb9-cfa68c37a558}, ! Handle
  Roof Membrane,                          ! Name
  VeryRough,                              ! Roughness
  0.0095,                                 ! Thickness {m}
  0.16,                                   ! Conductivity {W/m-K}
  1121.29,                                ! Density {kg/m3}
  1460,                                   ! Specific Heat {J/kg-K}
  0.9,                                    ! Thermal Absorptance
  0.7,                                    ! Solar Absorptance
  0.7;                                    ! Visible Absorptance

OS:Material,
  {6f3092ca-6e95-49e6-9995-022acccf734c}, ! Handle
  Roof Insulation,                        ! Name
  MediumRough,                            ! Roughness
  0.124958,                               ! Thickness {m}
  0.049,                                  ! Conductivity {W/m-K}
  265,                                    ! Density {kg/m3}
  836.8,                                  ! Specific Heat {J/kg-K}
  0.9,                                    ! Thermal Absorptance
  0.7,                                    ! Solar Absorptance
  0.7;                                    ! Visible Absorptance

OS:ComponentCost:LineItem,
  {db9e3c3c-1a33-4f15-8776-a5ab3b94d4f8}, ! Handle
  90.1-1999 Nonres B19 Roof IEAD,         ! Name
  ,                                       ! Type
  Construction,                           ! Line Item Type
  90.1-1999 Nonres B19 Roof IEAD,         ! Item Name
  ,                                       ! Object End Use Key
  ,                                       ! Quantity {dimensionless}
  49.208,                                 ! Material Cost {$}
  CostPerArea;                            ! Material Cost Units

OS:Construction,
  {edce6bbf-edd0-49c6-9a25-cf693bc9803c}, ! Handle
  90.1-1999 Nonres B19 Roof IEAD,         ! Name
  ,                                       ! Surface Rendering Name
  {cf228bbf-b87f-4ec1-9fb9-cfa68c37a558}, ! Layer 1
  {6f3092ca-6e95-49e6-9995-022acccf734c}, ! Layer 2
  {6f573d65-c40c-46fe-9035-672c9155b003}; ! Layer 3

