
OS:Version,
  {f7a97f70-3b77-4355-8e65-ffc17335237b}, ! Handle
  0.9.3;                                  ! Version Identifier

OS:Construction,
  {8b6c9fef-33e8-42e4-9663-819a9933c2eb}, ! Handle
  90.1-1999 Res B8 Ext Slab Unheated - 4in Slab without Carpet, ! Name
  ,                                       ! Surface Rendering Name
  {6584ab6c-82e3-498c-a326-fd9d8c43ec13}; ! Layer 1

OS:Material,
  {6584ab6c-82e3-498c-a326-fd9d8c43ec13}, ! Handle
  MAT-CC05 4 HW CONCRETE,                 ! Name
  Rough,                                  ! Roughness
  0.1016,                                 ! Thickness {m}
  1.311,                                  ! Conductivity {W/m-K}
  2240,                                   ! Density {kg/m3}
  836.8,                                  ! Specific Heat {J/kg-K}
  0.9,                                    ! Thermal Absorptance
  0.7,                                    ! Solar Absorptance
  0.7;                                    ! Visible Absorptance

OS:ComponentCost:LineItem,
  {ca91902a-e0b6-42b6-8927-10c1f0601cf2}, ! Handle
  90.1-1999 Res B8 Ext Slab Unheated - 4in Slab without Carpet, ! Name
  ,                                       ! Type
  Construction,                           ! Line Item Type
  90.1-1999 Res B8 Ext Slab Unheated - 4in Slab without Carpet, ! Item Name
  ,                                       ! Object End Use Key
  ,                                       ! Quantity {dimensionless}
  45.52,                                  ! Material Cost {$}
  CostPerArea;                            ! Material Cost Units

