
OS:Version,
  {b8f9b16b-c555-4231-9b74-207607601124}, ! Handle
  0.9.3;                                  ! Version Identifier

OS:Construction,
  {8708ddc3-844e-4af5-8fdf-327a3a1c8b84}, ! Handle
  90.1-2001 Nonres B5 Int Wall,           ! Name
  ,                                       ! Surface Rendering Name
  {d8f0ebfd-dc44-4546-80ce-19ab3dce587d}, ! Layer 1
  {d8f0ebfd-dc44-4546-80ce-19ab3dce587d}; ! Layer 2

OS:Material,
  {d8f0ebfd-dc44-4546-80ce-19ab3dce587d}, ! Handle
  GP01 1/2 GYPSUM,                        ! Name
  Smooth,                                 ! Roughness
  0.01271,                                ! Thickness {m}
  0.16,                                   ! Conductivity {W/m-K}
  800,                                    ! Density {kg/m3}
  1090,                                   ! Specific Heat {J/kg-K}
  0.9,                                    ! Thermal Absorptance
  0.7,                                    ! Solar Absorptance
  0.5;                                    ! Visible Absorptance

OS:ComponentCost:LineItem,
  {091fc2ec-0303-4816-b993-20f0895fa93e}, ! Handle
  90.1-2001 Nonres B5 Int Wall,           ! Name
  ,                                       ! Type
  Construction,                           ! Line Item Type
  90.1-2001 Nonres B5 Int Wall,           ! Item Name
  ,                                       ! Object End Use Key
  ,                                       ! Quantity {dimensionless}
  0,                                      ! Material Cost {$}
  CostPerArea;                            ! Material Cost Units

OS:ComponentData,
  {13b5e764-2c09-4a2a-98a4-90e77b6d8754}, ! Handle
  Component Data 1,                       ! Name
  {6e778676-201e-4849-aa9e-5852544ceea7}, ! UUID
  {f74ddd91-9095-4cb1-9f23-dd1b7c8ae5a7}, ! Version UUID
  1363981309,                             ! Creation Timestamp
  1363981309,                             ! Version Timestamp
  {8708ddc3-844e-4af5-8fdf-327a3a1c8b84}, ! Name of Object 1
  {d8f0ebfd-dc44-4546-80ce-19ab3dce587d}, ! Name of Object 2
  {091fc2ec-0303-4816-b993-20f0895fa93e}; ! Name of Object 3

