
OS:Version,
  {fdca397c-13be-4bb3-9e47-db06fe9da8f1}, ! Handle
  0.9.3;                                  ! Version Identifier

OS:Construction,
  {cea66989-606f-4b63-a721-3e689aa3fcd6}, ! Handle
  90.1-1999 Res B9 Ext Wall Wood-Framed and Other, ! Name
  ,                                       ! Surface Rendering Name
  {076cdced-5b14-43bf-bb5e-818798dee17f}, ! Layer 1
  {06f78089-7e65-4279-92ed-602d55afb210}, ! Layer 2
  {08481318-8f91-4783-bd46-856e72355795}; ! Layer 3

OS:Material,
  {076cdced-5b14-43bf-bb5e-818798dee17f}, ! Handle
  Wood Siding,                            ! Name
  MediumSmooth,                           ! Roughness
  0.01,                                   ! Thickness {m}
  0.11,                                   ! Conductivity {W/m-K}
  544.62,                                 ! Density {kg/m3}
  1210,                                   ! Specific Heat {J/kg-K}
  0.9,                                    ! Thermal Absorptance
  0.78,                                   ! Solar Absorptance
  0.78;                                   ! Visible Absorptance

OS:Material,
  {06f78089-7e65-4279-92ed-602d55afb210}, ! Handle
  Wall Insulation [2],                    ! Name
  MediumRough,                            ! Roughness
  0.0746874,                              ! Thickness {m}
  0.045,                                  ! Conductivity {W/m-K}
  265,                                    ! Density {kg/m3}
  836.8,                                  ! Specific Heat {J/kg-K}
  0.9,                                    ! Thermal Absorptance
  0.7,                                    ! Solar Absorptance
  0.7;                                    ! Visible Absorptance

OS:Material,
  {08481318-8f91-4783-bd46-856e72355795}, ! Handle
  1/2IN Gypsum,                           ! Name
  Smooth,                                 ! Roughness
  0.01271,                                ! Thickness {m}
  0.16,                                   ! Conductivity {W/m-K}
  784.9,                                  ! Density {kg/m3}
  830,                                    ! Specific Heat {J/kg-K}
  0.9,                                    ! Thermal Absorptance
  0.92,                                   ! Solar Absorptance
  0.92;                                   ! Visible Absorptance

OS:ComponentCost:LineItem,
  {915b28de-860e-450d-b0cc-af6cb3c86f30}, ! Handle
  90.1-1999 Res B9 Ext Wall Wood-Framed and Other, ! Name
  ,                                       ! Type
  Construction,                           ! Line Item Type
  90.1-1999 Res B9 Ext Wall Wood-Framed and Other, ! Item Name
  ,                                       ! Object End Use Key
  ,                                       ! Quantity {dimensionless}
  73.056,                                 ! Material Cost {$}
  CostPerArea;                            ! Material Cost Units

