
OS:Version,
  {6817b450-00fe-403f-a542-4057c3f6da87}, ! Handle
  0.9.3;                                  ! Version Identifier

OS:Material:NoMass,
  {140e010e-9214-4997-8716-1b677d70326e}, ! Handle
  DoorMaterial [2],                       ! Name
  MediumRough,                            ! Roughness
  0.352225,                               ! Thermal Resistance {m2-K/W}
  0.9,                                    ! Thermal Absorptance
  0.7,                                    ! Solar Absorptance
  0.7;                                    ! Visible Absorptance

OS:Construction,
  {95438d65-d62e-434b-b99b-8e5e137a40d7}, ! Handle
  AEDG-SmOffice 4B Door Non-Swinging,     ! Name
  ,                                       ! Surface Rendering Name
  {140e010e-9214-4997-8716-1b677d70326e}; ! Layer 1

OS:ComponentCost:LineItem,
  {41094654-e22a-4463-a97c-b22f6f4dec54}, ! Handle
  AEDG-SmOffice 4B Door Non-Swinging,     ! Name
  ,                                       ! Type
  Construction,                           ! Line Item Type
  AEDG-SmOffice 4B Door Non-Swinging,     ! Item Name
  ,                                       ! Object End Use Key
  ,                                       ! Quantity {dimensionless}
  0,                                      ! Material Cost {$}
  CostPerArea;                            ! Material Cost Units

