
OS:Version,
  {f226ff81-c6c4-4c5c-aeab-c1dce5132579}, ! Handle
  0.9.3;                                  ! Version Identifier

OS:Material,
  {9196512b-ffc2-4c60-ab2a-5fef3bc0788f}, ! Handle
  1IN Wood Decking,                       ! Name
  MediumSmooth,                           ! Roughness
  0.0254,                                 ! Thickness {m}
  0.1211,                                 ! Conductivity {W/m-K}
  593,                                    ! Density {kg/m3}
  2510,                                   ! Specific Heat {J/kg-K}
  0.9,                                    ! Thermal Absorptance
  0.78,                                   ! Solar Absorptance
  0.78;                                   ! Visible Absorptance

OS:Material,
  {53994e03-e4b6-49bc-99d5-d60bd4139a10}, ! Handle
  1/2IN Gypsum,                           ! Name
  Smooth,                                 ! Roughness
  0.01271,                                ! Thickness {m}
  0.16,                                   ! Conductivity {W/m-K}
  784.9,                                  ! Density {kg/m3}
  830,                                    ! Specific Heat {J/kg-K}
  0.9,                                    ! Thermal Absorptance
  0.92,                                   ! Solar Absorptance
  0.92;                                   ! Visible Absorptance

OS:Construction,
  {d5ab140c-33e9-4197-b1c7-8d9c5845f5f0}, ! Handle
  90.1-2001 Res B19 Roof Attic and Other, ! Name
  ,                                       ! Surface Rendering Name
  {102e6f3c-4689-4aa1-bddc-b10622d36e2b}, ! Layer 1
  {9196512b-ffc2-4c60-ab2a-5fef3bc0788f}, ! Layer 2
  {0099e236-6a40-45e4-8910-ec4fcfb894df}, ! Layer 3
  {53994e03-e4b6-49bc-99d5-d60bd4139a10}; ! Layer 4

OS:Material,
  {102e6f3c-4689-4aa1-bddc-b10622d36e2b}, ! Handle
  Wood Shingles,                          ! Name
  VeryRough,                              ! Roughness
  0.0178,                                 ! Thickness {m}
  0.115,                                  ! Conductivity {W/m-K}
  513,                                    ! Density {kg/m3}
  1255,                                   ! Specific Heat {J/kg-K}
  0.9,                                    ! Thermal Absorptance
  0.78,                                   ! Solar Absorptance
  0.78;                                   ! Visible Absorptance

OS:Material,
  {0099e236-6a40-45e4-8910-ec4fcfb894df}, ! Handle
  Roof Insulation [5],                    ! Name
  MediumRough,                            ! Roughness
  0.286906,                               ! Thickness {m}
  0.049,                                  ! Conductivity {W/m-K}
  265,                                    ! Density {kg/m3}
  836.8,                                  ! Specific Heat {J/kg-K}
  0.9,                                    ! Thermal Absorptance
  0.7,                                    ! Solar Absorptance
  0.7;                                    ! Visible Absorptance

OS:ComponentCost:LineItem,
  {c092521e-a333-4dd2-8bb8-f3bfc096c8fc}, ! Handle
  90.1-2001 Res B19 Roof Attic and Other, ! Name
  ,                                       ! Type
  Construction,                           ! Line Item Type
  90.1-2001 Res B19 Roof Attic and Other, ! Item Name
  ,                                       ! Object End Use Key
  ,                                       ! Quantity {dimensionless}
  34.757,                                 ! Material Cost {$}
  CostPerArea;                            ! Material Cost Units

