
OS:Version,
  {5c543f9e-ce5f-4841-9ce7-d4c0825dca29}, ! Handle
  0.9.3;                                  ! Version Identifier

OS:Construction,
  {38f468dd-6a7e-41c7-b068-2be420da31a2}, ! Handle
  90.1 Windows Window Fixed 2624 Vnl-ClrMpr-Ins-ClrPye, ! Name
  ,                                       ! Surface Rendering Name
  {1fc277e2-449a-4e4a-acb1-d80fda71b4f1}; ! Layer 1

OS:WindowMaterial:Glazing,
  {1fc277e2-449a-4e4a-acb1-d80fda71b4f1}, ! Handle
  Theoretical Glass [370],                ! Name
  SpectralAverage,                        ! Optical Data Type
  ,                                       ! Window Glass Spectral Data Set Name
  0.003,                                  ! Thickness {m}
  0.395208,                               ! Solar Transmittance at Normal Incidence
  0.554792,                               ! Front Side Solar Reflectance at Normal Incidence
  0.554792,                               ! Back Side Solar Reflectance at Normal Incidence
  0.390045,                               ! Visible Transmittance at Normal Incidence
  0.559955,                               ! Front Side Visible Reflectance at Normal Incidence
  0.559955,                               ! Back Side Visible Reflectance at Normal Incidence
  0,                                      ! Infrared Transmittance at Normal Incidence
  0.9,                                    ! Front Side Infrared Hemispherical Emissivity
  0.9,                                    ! Back Side Infrared Hemispherical Emissivity
  0.00881945;                             ! Conductivity {W/m-K}

OS:ComponentCost:LineItem,
  {c9a45778-79a8-458e-9b3b-90cc3ddcdad1}, ! Handle
  90.1 Windows Window Fixed 2624 Vnl-ClrMpr-Ins-ClrPye, ! Name
  ,                                       ! Type
  Construction,                           ! Line Item Type
  90.1 Windows Window Fixed 2624 Vnl-ClrMpr-Ins-ClrPye, ! Item Name
  ,                                       ! Object End Use Key
  ,                                       ! Quantity {dimensionless}
  0,                                      ! Material Cost {$}
  CostPerArea;                            ! Material Cost Units

