
OS:Version,
  {2a1ec191-d3fa-4339-8ec2-6035364be7d5}, ! Handle
  0.9.3;                                  ! Version Identifier

OS:Construction,
  {f0f3b2ff-94dc-43d5-8344-cdb1bb2de467}, !- Handle
  CLIMALIT PLUS con COOL LITE XTREME 60/28 F2 6 (16 argon90%) 44.2,                         !- Name
  ,                                       !- Surface Rendering Name
  {15f0aa10-bcff-4f00-acee-b98395dbc00f}; !- Layer 1  
  



        
OS:WindowMaterial:SimpleGlazingSystem,
  {15f0aa10-bcff-4f00-acee-b98395dbc00f}, !- Handle
  CLIMALIT PLUS con COOL LITE XTREME 60/28 F2 6 (16 argon90%) 44.2, !- Name
  1.0,                                    !- U-Factor {W/m2-K}
  0.28,                                    !- Solar Heat Gain Coefficient
  0.59;                                    !- Visible Transmittance     


OS:ComponentCost:LineItem,
  {663124a0-83ea-4a18-94bc-96a01455eaa6}, ! Handle
  CLIMALIT PLUS con COOL LITE XTREME 60/28 F2 6 (16 argon90%) 44.2,        ! Name
  ,                                       ! Type
  Construction,                           ! Line Item Type
  CLIMALIT PLUS con COOL LITE XTREME 60/28 F2 6 (16 argon90%) 44.2,        ! Item Name
  ,                                       ! Object End Use Key
  ,                                       ! Quantity {dimensionless}
  600.0,                                ! Material Cost {$}
  CostPerArea;                            ! Material Cost Units



OS:ComponentData,
  {6f114679-146d-4a38-a9f1-48dca8ba4e2f}, ! Handle
  Component Data 1,                       ! Name
  {6a684c23-5c87-4815-b7b9-ba1c6bab3d8f}, ! UUID
  {c98eb516-363b-4f7d-a149-af030adf6783}, ! Version UUID
  1487924014,                             ! Creation Timestamp
  1487924014,                             ! Version Timestamp
  {f0f3b2ff-94dc-43d5-8344-cdb1bb2de467}, ! Name of Object 1
  {15f0aa10-bcff-4f00-acee-b98395dbc00f}, ! Name of Object 2
  {663124a0-83ea-4a18-94bc-96a01455eaa6}; ! Name of Object 3

  

