
! 
OS:Version,
  {9c37d538-db0d-4a47-9850-5bede7e76bd5}, !- Handle
  1.13.0;                                 !- Version Identifier


! {"nombreProductoCorto": "CLIMALIT PLUS con COOL LITE XTREME 60/28 F2 6 (16 argon90%) 44.2", "codigoEAN": "", "handle": "15f0aa10-bcff-4f00-acee-b98395dbc00f", "g": 0.28, "tV": 0.59, "u": 1.0, "nombreProducto": "CLIMALIT PLUS con COOL LITE XTREME 60/28 F2 6 (16 argon90%) 44.2\nU:1.0 W/m2K - g:0.28 - Tv: 0.59"}
OS:WindowMaterial:SimpleGlazingSystem,
  {15f0aa10-bcff-4f00-acee-b98395dbc00f}, !- Handle
  CLIMALIT PLUS con COOL LITE XTREME 60/28 F2 6 (16 argon90%) 44.2, !- Name
  1.0,                                    !- U-Factor {W/m2-K}
  0.28,                                    !- Solar Heat Gain Coefficient
  0.59;                                    !- Visible Transmittance     
  
  
OS:Construction,
  {6087338e-795e-4a49-a962-73cda26bbd24}, !- Handle
  CLIMALIT PLUS con COOL LITE XTREME 60/28 F2 6 (16 argon90%) 44.2,                         !- Name
  ,                                       !- Surface Rendering Name
  {15f0aa10-bcff-4f00-acee-b98395dbc00f}; !- Layer 1  

