
OS:Version,
  {b38cfb41-bd97-4e8e-84f5-607efb154a60}, ! Handle
  0.9.3;                                  ! Version Identifier

OS:Construction,
  {0f75a878-c21d-4863-8b57-19e0389cf5d7}, ! Handle
  90.1-1999 Res B2 Ext Wall Steel-Framed, ! Name
  ,                                       ! Surface Rendering Name
  {1eeebd4d-e0f0-4d01-bd98-1048a6f52606}, ! Layer 1
  {7bf39648-03a8-4382-9405-ed6b873447c4}, ! Layer 2
  {2bd32b1e-ef28-4b14-afef-ca8002c1e191}; ! Layer 3

OS:Material:NoMass,
  {1eeebd4d-e0f0-4d01-bd98-1048a6f52606}, ! Handle
  MAT-SHEATH,                             ! Name
  Rough,                                  ! Roughness
  0.36256,                                ! Thermal Resistance {m2-K/W}
  0.9,                                    ! Thermal Absorptance
  0.7,                                    ! Solar Absorptance
  0.7;                                    ! Visible Absorptance

OS:Material,
  {7bf39648-03a8-4382-9405-ed6b873447c4}, ! Handle
  Wall Insulation [1],                    ! Name
  MediumRough,                            ! Roughness
  0.0373223,                              ! Thickness {m}
  0.045,                                  ! Conductivity {W/m-K}
  265,                                    ! Density {kg/m3}
  836.8,                                  ! Specific Heat {J/kg-K}
  0.9,                                    ! Thermal Absorptance
  0.7,                                    ! Solar Absorptance
  0.7;                                    ! Visible Absorptance

OS:Material,
  {2bd32b1e-ef28-4b14-afef-ca8002c1e191}, ! Handle
  1/2IN Gypsum,                           ! Name
  Smooth,                                 ! Roughness
  0.01271,                                ! Thickness {m}
  0.16,                                   ! Conductivity {W/m-K}
  784.9,                                  ! Density {kg/m3}
  830,                                    ! Specific Heat {J/kg-K}
  0.9,                                    ! Thermal Absorptance
  0.92,                                   ! Solar Absorptance
  0.92;                                   ! Visible Absorptance

OS:ComponentCost:LineItem,
  {97b00801-4f6e-4ea6-a3cf-4137b3093e4e}, ! Handle
  90.1-1999 Res B2 Ext Wall Steel-Framed, ! Name
  ,                                       ! Type
  Construction,                           ! Line Item Type
  90.1-1999 Res B2 Ext Wall Steel-Framed, ! Item Name
  ,                                       ! Object End Use Key
  ,                                       ! Quantity {dimensionless}
  87.08,                                  ! Material Cost {$}
  CostPerArea;                            ! Material Cost Units

