
! 
OS:Version,
  {9c37d538-db0d-4a47-9850-5bede7e76bd5}, !- Handle
  1.13.0;                                 !- Version Identifier


! {"nombreProductoCorto": "CLIMALIT PLUS con COOL LITE SKN 154 F2 6 (16 argon90%) 44.2", "codigoEAN": "", "handle": "bdde2200-847d-48ec-9f18-a8c738aadc05", "g": 0.28, "tV": 0.51, "u": 1.0, "nombreProducto": "CLIMALIT PLUS con COOL LITE SKN 154 F2 6 (16 argon90%) 44.2\nU:1.0 W/m2K - g:0.28 - Tv: 0.51"}
OS:WindowMaterial:SimpleGlazingSystem,
  {bdde2200-847d-48ec-9f18-a8c738aadc05}, !- Handle
  CLIMALIT PLUS con COOL LITE SKN 154 F2 6 (16 argon90%) 44.2, !- Name
  1.0,                                    !- U-Factor {W/m2-K}
  0.28,                                    !- Solar Heat Gain Coefficient
  0.51;                                    !- Visible Transmittance     
  
  
OS:Construction,
  {95ec1a81-fee4-46e2-99ff-8e57532dfecb}, !- Handle
  CLIMALIT PLUS con COOL LITE SKN 154 F2 6 (16 argon90%) 44.2,                         !- Name
  ,                                       !- Surface Rendering Name
  {bdde2200-847d-48ec-9f18-a8c738aadc05}; !- Layer 1  

