
OS:Version,
  {2a1ec191-d3fa-4339-8ec2-6035364be7d5}, ! Handle
  0.9.3;                                  ! Version Identifier

OS:Construction,
  {bfe6ac89-ca01-4cee-85c9-6e20076b9986}, !- Handle
  CLIMALIT PLUS con COOL LITE SKN 154 F2 6 (16 argon90%) 44.2,                         !- Name
  ,                                       !- Surface Rendering Name
  {bdde2200-847d-48ec-9f18-a8c738aadc05}; !- Layer 1  
  



        
OS:WindowMaterial:SimpleGlazingSystem,
  {bdde2200-847d-48ec-9f18-a8c738aadc05}, !- Handle
  CLIMALIT PLUS con COOL LITE SKN 154 F2 6 (16 argon90%) 44.2, !- Name
  1.0,                                    !- U-Factor {W/m2-K}
  0.28,                                    !- Solar Heat Gain Coefficient
  0.51;                                    !- Visible Transmittance     


OS:ComponentCost:LineItem,
  {8de6f79a-e752-49e9-b232-7a8d3e21ebc0}, ! Handle
  CLIMALIT PLUS con COOL LITE SKN 154 F2 6 (16 argon90%) 44.2,        ! Name
  ,                                       ! Type
  Construction,                           ! Line Item Type
  CLIMALIT PLUS con COOL LITE SKN 154 F2 6 (16 argon90%) 44.2,        ! Item Name
  ,                                       ! Object End Use Key
  ,                                       ! Quantity {dimensionless}
  600.0,                                ! Material Cost {$}
  CostPerArea;                            ! Material Cost Units



OS:ComponentData,
  {309eee68-fd72-4505-90aa-3f50aabca670}, ! Handle
  Component Data 1,                       ! Name
  {9be4c71c-5c7c-4f06-9cb2-ab26d5acc00d}, ! UUID
  {00d83511-e17b-4d63-820a-72e6a70eff89}, ! Version UUID
  1487924014,                             ! Creation Timestamp
  1487924014,                             ! Version Timestamp
  {bfe6ac89-ca01-4cee-85c9-6e20076b9986}, ! Name of Object 1
  {bdde2200-847d-48ec-9f18-a8c738aadc05}, ! Name of Object 2
  {8de6f79a-e752-49e9-b232-7a8d3e21ebc0}; ! Name of Object 3

  

