
OS:Version,
  {735b47af-f47d-47f6-82b7-25ec1551621f}, !- Handle
  1.1.0;                                  !- Version Identifier

OS:Construction,
  {24315504-ac74-4015-baa1-c6a4e55d4c03}, !- Handle
  Trp LoE Film (77) Clr 3mm/6mm Air,      !- Name
  ,                                       !- Surface Rendering Name
  {fff8526b-4aed-46f5-b671-7b33f3542306}, !- Layer 1
  {c6495f47-58d2-4844-a64e-bc392922eb27}, !- Layer 2
  {df6632f9-0ff8-43da-85d8-eebb3344200f}, !- Layer 3
  {c6495f47-58d2-4844-a64e-bc392922eb27}, !- Layer 4
  {fff8526b-4aed-46f5-b671-7b33f3542306}; !- Layer 5

OS:WindowMaterial:Glazing,
  {fff8526b-4aed-46f5-b671-7b33f3542306}, !- Handle
  CLEAR 3MM,                              !- Name
  SpectralAverage,                        !- Optical Data Type
  ,                                       !- Window Glass Spectral Data Set Name
  0.003,                                  !- Thickness {m}
  0.837,                                  !- Solar Transmittance at Normal Incidence
  0.075,                                  !- Front Side Solar Reflectance at Normal Incidence
  0.075,                                  !- Back Side Solar Reflectance at Normal Incidence
  0.898,                                  !- Visible Transmittance at Normal Incidence
  0.081,                                  !- Front Side Visible Reflectance at Normal Incidence
  0.081,                                  !- Back Side Visible Reflectance at Normal Incidence
  0,                                      !- Infrared Transmittance at Normal Incidence
  0.84,                                   !- Front Side Infrared Hemispherical Emissivity
  0.84,                                   !- Back Side Infrared Hemispherical Emissivity
  0.9;                                    !- Conductivity {W/m-K}

OS:WindowMaterial:Gas,
  {c6495f47-58d2-4844-a64e-bc392922eb27}, !- Handle
  AIR 6MM,                                !- Name
  Air,                                    !- Gas Type
  0.0063;                                 !- Thickness {m}

OS:WindowMaterial:Glazing,
  {df6632f9-0ff8-43da-85d8-eebb3344200f}, !- Handle
  COATED POLY-77,                         !- Name
  SpectralAverage,                        !- Optical Data Type
  ,                                       !- Window Glass Spectral Data Set Name
  0.00051,                                !- Thickness {m}
  0.504,                                  !- Solar Transmittance at Normal Incidence
  0.402,                                  !- Front Side Solar Reflectance at Normal Incidence
  0.398,                                  !- Back Side Solar Reflectance at Normal Incidence
  0.766,                                  !- Visible Transmittance at Normal Incidence
  0.147,                                  !- Front Side Visible Reflectance at Normal Incidence
  0.167,                                  !- Back Side Visible Reflectance at Normal Incidence
  0,                                      !- Infrared Transmittance at Normal Incidence
  0.075,                                  !- Front Side Infrared Hemispherical Emissivity
  0.72,                                   !- Back Side Infrared Hemispherical Emissivity
  0.14;                                   !- Conductivity {W/m-K}

