
OS:Version,
  {5958693f-cfe7-4d14-bb6f-2d205de79bad}, ! Handle
  0.9.3;                                  ! Version Identifier

OS:Construction,
  {9dbfcbb3-6d36-4bc4-8996-6d7064ed5d4d}, ! Handle
  90.1 Windows Window Fixed 2436 Brk-HptMpr-Ins-ClrSpe, ! Name
  ,                                       ! Surface Rendering Name
  {b17e4c90-13ff-42a0-8feb-7ebb047fba4e}; ! Layer 1

OS:WindowMaterial:Glazing,
  {b17e4c90-13ff-42a0-8feb-7ebb047fba4e}, ! Handle
  Theoretical Glass [526],                ! Name
  SpectralAverage,                        ! Optical Data Type
  ,                                       ! Window Glass Spectral Data Set Name
  0.003,                                  ! Thickness {m}
  0.215629,                               ! Solar Transmittance at Normal Incidence
  0.734371,                               ! Front Side Solar Reflectance at Normal Incidence
  0.734371,                               ! Back Side Solar Reflectance at Normal Incidence
  0.320998,                               ! Visible Transmittance at Normal Incidence
  0.629002,                               ! Front Side Visible Reflectance at Normal Incidence
  0.629002,                               ! Back Side Visible Reflectance at Normal Incidence
  0,                                      ! Infrared Transmittance at Normal Incidence
  0.9,                                    ! Front Side Infrared Hemispherical Emissivity
  0.9,                                    ! Back Side Infrared Hemispherical Emissivity
  0.0125205;                              ! Conductivity {W/m-K}

OS:ComponentCost:LineItem,
  {f41927a7-d1b6-46cd-bdb6-21308d75fbd8}, ! Handle
  90.1 Windows Window Fixed 2436 Brk-HptMpr-Ins-ClrSpe, ! Name
  ,                                       ! Type
  Construction,                           ! Line Item Type
  90.1 Windows Window Fixed 2436 Brk-HptMpr-Ins-ClrSpe, ! Item Name
  ,                                       ! Object End Use Key
  ,                                       ! Quantity {dimensionless}
  0,                                      ! Material Cost {$}
  CostPerArea;                            ! Material Cost Units

OS:ComponentData,
  {f29dd500-995e-43d6-8c0e-6ce42fa41c80}, ! Handle
  Component Data 1,                       ! Name
  {48f06420-3bdc-455e-a571-a574ef910c7b}, ! UUID
  {0239f2c7-e5f5-43bb-bc3b-44bf84a6cfdb}, ! Version UUID
  1363981026,                             ! Creation Timestamp
  1363981026,                             ! Version Timestamp
  {9dbfcbb3-6d36-4bc4-8996-6d7064ed5d4d}, ! Name of Object 1
  {b17e4c90-13ff-42a0-8feb-7ebb047fba4e}, ! Name of Object 2
  {f41927a7-d1b6-46cd-bdb6-21308d75fbd8}; ! Name of Object 3

