
OS:Version,
  {43e6a9dc-7a92-43ff-81c5-b0dc04a54624}, ! Handle
  0.9.3;                                  ! Version Identifier

OS:ComponentCost:LineItem,
  {13193b78-152e-498d-9f53-41a8a0f964fa}, ! Handle
  90.1 Windows Window Fixed 2436 Brk-HptMpr-Ins-ClrSpe, ! Name
  ,                                       ! Type
  Construction,                           ! Line Item Type
  90.1 Windows Window Fixed 2436 Brk-HptMpr-Ins-ClrSpe, ! Item Name
  ,                                       ! Object End Use Key
  ,                                       ! Quantity {dimensionless}
  0,                                      ! Material Cost {$}
  CostPerArea;                            ! Material Cost Units

OS:Construction,
  {834ede53-bd23-48cd-9742-d89023fcf37c}, ! Handle
  90.1 Windows Window Fixed 2436 Brk-HptMpr-Ins-ClrSpe, ! Name
  ,                                       ! Surface Rendering Name
  {ec1c6782-ddb3-481c-8caf-ed430a4b9581}; ! Layer 1

OS:WindowMaterial:Glazing,
  {ec1c6782-ddb3-481c-8caf-ed430a4b9581}, ! Handle
  Theoretical Glass [526],                ! Name
  SpectralAverage,                        ! Optical Data Type
  ,                                       ! Window Glass Spectral Data Set Name
  0.003,                                  ! Thickness {m}
  0.215629,                               ! Solar Transmittance at Normal Incidence
  0.734371,                               ! Front Side Solar Reflectance at Normal Incidence
  0.734371,                               ! Back Side Solar Reflectance at Normal Incidence
  0.320998,                               ! Visible Transmittance at Normal Incidence
  0.629002,                               ! Front Side Visible Reflectance at Normal Incidence
  0.629002,                               ! Back Side Visible Reflectance at Normal Incidence
  0,                                      ! Infrared Transmittance at Normal Incidence
  0.9,                                    ! Front Side Infrared Hemispherical Emissivity
  0.9,                                    ! Back Side Infrared Hemispherical Emissivity
  0.0125205;                              ! Conductivity {W/m-K}

