
OS:Version,
  {5d8127bc-a777-4769-b29c-a441cea54819}, ! Handle
  0.9.3;                                  ! Version Identifier

OS:Material:NoMass,
  {e3f03b55-8c0a-4f30-b560-1cc8921a774e}, ! Handle
  CP02 CARPET PAD,                        ! Name
  VeryRough,                              ! Roughness
  0.21648,                                ! Thermal Resistance {m2-K/W}
  0.9,                                    ! Thermal Absorptance
  0.7,                                    ! Solar Absorptance
  0.8;                                    ! Visible Absorptance

OS:ComponentCost:LineItem,
  {652287d7-9f7d-4b8e-90b3-afefaba342fa}, ! Handle
  Title 24-2008 Nonres 3 Ext Slab Unheated - 8in Slab with Carpet, ! Name
  ,                                       ! Type
  Construction,                           ! Line Item Type
  Title 24-2008 Nonres 3 Ext Slab Unheated - 8in Slab with Carpet, ! Item Name
  ,                                       ! Object End Use Key
  ,                                       ! Quantity {dimensionless}
  45.52,                                  ! Material Cost {$}
  CostPerArea;                            ! Material Cost Units

OS:Construction,
  {7f60436c-53e4-4854-9d6d-acb2dfe9af1f}, ! Handle
  Title 24-2008 Nonres 3 Ext Slab Unheated - 8in Slab with Carpet, ! Name
  ,                                       ! Surface Rendering Name
  {9183fd18-7ace-46ed-8623-61a792dde64f}, ! Layer 1
  {e3f03b55-8c0a-4f30-b560-1cc8921a774e}; ! Layer 2

OS:Material,
  {9183fd18-7ace-46ed-8623-61a792dde64f}, ! Handle
  MAT-CC05 8 HW CONCRETE,                 ! Name
  Rough,                                  ! Roughness
  0.20321,                                ! Thickness {m}
  1.311,                                  ! Conductivity {W/m-K}
  2240,                                   ! Density {kg/m3}
  836.8,                                  ! Specific Heat {J/kg-K}
  0.9,                                    ! Thermal Absorptance
  0.7,                                    ! Solar Absorptance
  0.7;                                    ! Visible Absorptance

