
OS:Version,
  {02bdc678-b1c3-4dd3-8e19-516b8e329af3}, ! Handle
  0.9.3;                                  ! Version Identifier

OS:Material,
  {7ea447b8-63fa-41a7-a7dc-708e7192bed1}, ! Handle
  Roof Insulation [1],                    ! Name
  MediumRough,                            ! Roughness
  0.123533,                               ! Thickness {m}
  0.049,                                  ! Conductivity {W/m-K}
  265,                                    ! Density {kg/m3}
  836.8,                                  ! Specific Heat {J/kg-K}
  0.9,                                    ! Thermal Absorptance
  0.7,                                    ! Solar Absorptance
  0.7;                                    ! Visible Absorptance

OS:Construction,
  {c079442a-be41-4211-8676-f5f48dcc0547}, ! Handle
  90.1-2004 Res 4B Roof Metal Building,   ! Name
  ,                                       ! Surface Rendering Name
  {dda94435-a7a9-4776-ac26-d79cfeed1ef0}, ! Layer 1
  {7ea447b8-63fa-41a7-a7dc-708e7192bed1}; ! Layer 2

OS:Material,
  {dda94435-a7a9-4776-ac26-d79cfeed1ef0}, ! Handle
  Metal Roofing,                          ! Name
  MediumSmooth,                           ! Roughness
  0.001524,                               ! Thickness {m}
  45.006,                                 ! Conductivity {W/m-K}
  7680,                                   ! Density {kg/m3}
  418.4,                                  ! Specific Heat {J/kg-K}
  0.9,                                    ! Thermal Absorptance
  0.7,                                    ! Solar Absorptance
  0.3;                                    ! Visible Absorptance

OS:ComponentCost:LineItem,
  {56df9a07-31e7-4bb0-abbd-99abd64313e7}, ! Handle
  90.1-2004 Res 4B Roof Metal Building,   ! Name
  ,                                       ! Type
  Construction,                           ! Line Item Type
  90.1-2004 Res 4B Roof Metal Building,   ! Item Name
  ,                                       ! Object End Use Key
  ,                                       ! Quantity {dimensionless}
  38.206,                                 ! Material Cost {$}
  CostPerArea;                            ! Material Cost Units

