
OS:Version,
  {b4c509c3-0cf6-4cd7-9b48-a7a5176c6102}, ! Handle
  0.9.3;                                  ! Version Identifier

OS:Construction,
  {130e01f4-5c3b-43c5-ac95-ea4031621154}, ! Handle
  Title 24-2008 Nonres 3 Roof IEAD,       ! Name
  ,                                       ! Surface Rendering Name
  {964d6e30-74c1-4ce1-a06d-1592903e008d}, ! Layer 1
  {83a6c5b4-e1fa-435a-931b-5a1e4bf05f6d}, ! Layer 2
  {58d0261b-835b-4f86-bc6b-8cf69386f07d}; ! Layer 3

OS:Material,
  {964d6e30-74c1-4ce1-a06d-1592903e008d}, ! Handle
  Roof Membrane [2],                      ! Name
  VeryRough,                              ! Roughness
  0.0095,                                 ! Thickness {m}
  0.16,                                   ! Conductivity {W/m-K}
  1121.29,                                ! Density {kg/m3}
  1460,                                   ! Specific Heat {J/kg-K}
  0.9,                                    ! Thermal Absorptance
  0.7,                                    ! Solar Absorptance
  0.85;                                   ! Visible Absorptance

OS:Material,
  {83a6c5b4-e1fa-435a-931b-5a1e4bf05f6d}, ! Handle
  Roof Insulation [31],                   ! Name
  MediumRough,                            ! Roughness
  0.209546,                               ! Thickness {m}
  0.049,                                  ! Conductivity {W/m-K}
  265,                                    ! Density {kg/m3}
  836.8,                                  ! Specific Heat {J/kg-K}
  0.9,                                    ! Thermal Absorptance
  0.7,                                    ! Solar Absorptance
  0.7;                                    ! Visible Absorptance

OS:Material,
  {58d0261b-835b-4f86-bc6b-8cf69386f07d}, ! Handle
  Metal Decking,                          ! Name
  MediumSmooth,                           ! Roughness
  0.001524,                               ! Thickness {m}
  45.006,                                 ! Conductivity {W/m-K}
  7680,                                   ! Density {kg/m3}
  418.4,                                  ! Specific Heat {J/kg-K}
  0.9,                                    ! Thermal Absorptance
  0.7,                                    ! Solar Absorptance
  0.3;                                    ! Visible Absorptance

OS:ComponentCost:LineItem,
  {687ca641-8954-40c1-ae41-fda536acf3ea}, ! Handle
  Title 24-2008 Nonres 3 Roof IEAD,       ! Name
  ,                                       ! Type
  Construction,                           ! Line Item Type
  Title 24-2008 Nonres 3 Roof IEAD,       ! Item Name
  ,                                       ! Object End Use Key
  ,                                       ! Quantity {dimensionless}
  56.579,                                 ! Material Cost {$}
  CostPerArea;                            ! Material Cost Units

