
OS:Version,
  {3e4ee586-adba-4ed7-860c-ca577aeb45b1}, ! Handle
  0.9.3;                                  ! Version Identifier

OS:Material,
  {443783a7-dd15-4a75-a739-8e64615cb40a}, ! Handle
  1/2IN Gypsum Bottom,                    ! Name
  Smooth,                                 ! Roughness
  0.01271,                                ! Thickness {m}
  0.16,                                   ! Conductivity {W/m-K}
  784.9,                                  ! Density {kg/m3}
  830,                                    ! Specific Heat {J/kg-K}
  0.9,                                    ! Thermal Absorptance
  0.92,                                   ! Solar Absorptance
  0.92;                                   ! Visible Absorptance

OS:Material,
  {cba67410-2b94-4bba-a668-b1ddb8e1b3a6}, ! Handle
  1/2IN Gypsum Top,                       ! Name
  Smooth,                                 ! Roughness
  0.01271,                                ! Thickness {m}
  0.16,                                   ! Conductivity {W/m-K}
  784.9,                                  ! Density {kg/m3}
  830,                                    ! Specific Heat {J/kg-K}
  0.9,                                    ! Thermal Absorptance
  0.92,                                   ! Solar Absorptance
  0.92;                                   ! Visible Absorptance

OS:Construction,
  {af15db4d-f92c-4481-82c2-31ac8d24cdca}, ! Handle
  90.1-2004 Nonres 5B Attic Floor,        ! Name
  ,                                       ! Surface Rendering Name
  {cba67410-2b94-4bba-a668-b1ddb8e1b3a6}, ! Layer 1
  {64e80ae6-14d6-4c41-a298-ad86fe486aef}, ! Layer 2
  {443783a7-dd15-4a75-a739-8e64615cb40a}; ! Layer 3

OS:Material,
  {64e80ae6-14d6-4c41-a298-ad86fe486aef}, ! Handle
  AtticFloor Insulation,                  ! Name
  MediumRough,                            ! Roughness
  0.237853,                               ! Thickness {m}
  0.049,                                  ! Conductivity {W/m-K}
  265,                                    ! Density {kg/m3}
  836.8,                                  ! Specific Heat {J/kg-K}
  0.9,                                    ! Thermal Absorptance
  0.7,                                    ! Solar Absorptance
  0.7;                                    ! Visible Absorptance

OS:ComponentCost:LineItem,
  {7d293b12-7808-468b-94ef-4ddbd3d2ca88}, ! Handle
  90.1-2004 Nonres 5B Attic Floor,        ! Name
  ,                                       ! Type
  Construction,                           ! Line Item Type
  90.1-2004 Nonres 5B Attic Floor,        ! Item Name
  ,                                       ! Object End Use Key
  ,                                       ! Quantity {dimensionless}
  33.596,                                 ! Material Cost {$}
  CostPerArea;                            ! Material Cost Units

