
OS:Version,
  {346c5558-ca7d-4eb6-8332-f6669147331c}, ! Handle
  0.9.3;                                  ! Version Identifier

OS:Material,
  {99de3e8e-a97f-4410-a096-a64ff5836db1}, ! Handle
  Wall Insulation [2],                    ! Name
  MediumRough,                            ! Roughness
  0.0746874,                              ! Thickness {m}
  0.045,                                  ! Conductivity {W/m-K}
  265,                                    ! Density {kg/m3}
  836.8,                                  ! Specific Heat {J/kg-K}
  0.9,                                    ! Thermal Absorptance
  0.7,                                    ! Solar Absorptance
  0.7;                                    ! Visible Absorptance

OS:Construction,
  {3d51b160-da48-45bc-bb1d-16e5ec329ec2}, ! Handle
  90.1-2001 Res B9 Ext Wall Wood-Framed and Other, ! Name
  ,                                       ! Surface Rendering Name
  {f65a6001-c4b6-430d-ad62-82127d27671e}, ! Layer 1
  {99de3e8e-a97f-4410-a096-a64ff5836db1}, ! Layer 2
  {9b575629-a69b-4b3a-84fb-dbd016c94012}; ! Layer 3

OS:Material,
  {f65a6001-c4b6-430d-ad62-82127d27671e}, ! Handle
  Wood Siding,                            ! Name
  MediumSmooth,                           ! Roughness
  0.01,                                   ! Thickness {m}
  0.11,                                   ! Conductivity {W/m-K}
  544.62,                                 ! Density {kg/m3}
  1210,                                   ! Specific Heat {J/kg-K}
  0.9,                                    ! Thermal Absorptance
  0.78,                                   ! Solar Absorptance
  0.78;                                   ! Visible Absorptance

OS:Material,
  {9b575629-a69b-4b3a-84fb-dbd016c94012}, ! Handle
  1/2IN Gypsum,                           ! Name
  Smooth,                                 ! Roughness
  0.01271,                                ! Thickness {m}
  0.16,                                   ! Conductivity {W/m-K}
  784.9,                                  ! Density {kg/m3}
  830,                                    ! Specific Heat {J/kg-K}
  0.9,                                    ! Thermal Absorptance
  0.92,                                   ! Solar Absorptance
  0.92;                                   ! Visible Absorptance

OS:ComponentCost:LineItem,
  {f884c22e-9cb4-47d4-a998-b39c9828a568}, ! Handle
  90.1-2001 Res B9 Ext Wall Wood-Framed and Other, ! Name
  ,                                       ! Type
  Construction,                           ! Line Item Type
  90.1-2001 Res B9 Ext Wall Wood-Framed and Other, ! Item Name
  ,                                       ! Object End Use Key
  ,                                       ! Quantity {dimensionless}
  73.056,                                 ! Material Cost {$}
  CostPerArea;                            ! Material Cost Units

