
OS:Version,
  {5226f10f-4af6-46e1-bfc8-0aa13f15f106}, ! Handle
  0.9.3;                                  ! Version Identifier

OS:Construction,
  {2f0f7683-6b52-4668-95f7-bbafea35e939}, ! Handle
  90.1-1999 Res B3 Skylight without Curb, ! Name
  ,                                       ! Surface Rendering Name
  {4ab74168-9c74-4a6b-9619-3cbed4754d5b}; ! Layer 1

OS:WindowMaterial:Glazing,
  {4ab74168-9c74-4a6b-9619-3cbed4754d5b}, ! Handle
  Theoretical Glass [63],                 ! Name
  SpectralAverage,                        ! Optical Data Type
  ,                                       ! Window Glass Spectral Data Set Name
  0.003,                                  ! Thickness {m}
  0.177255,                               ! Solar Transmittance at Normal Incidence
  0.772745,                               ! Front Side Solar Reflectance at Normal Incidence
  0.772745,                               ! Back Side Solar Reflectance at Normal Incidence
  0.176052,                               ! Visible Transmittance at Normal Incidence
  0.773948,                               ! Front Side Visible Reflectance at Normal Incidence
  0.773948,                               ! Back Side Visible Reflectance at Normal Incidence
  0,                                      ! Infrared Transmittance at Normal Incidence
  0.999,                                  ! Front Side Infrared Hemispherical Emissivity
  0.999,                                  ! Back Side Infrared Hemispherical Emissivity
  72.7123;                                ! Conductivity {W/m-K}

OS:ComponentCost:LineItem,
  {954a9c1f-5000-46ad-b864-d925b1a806d1}, ! Handle
  90.1-1999 Res B3 Skylight without Curb, ! Name
  ,                                       ! Type
  Construction,                           ! Line Item Type
  90.1-1999 Res B3 Skylight without Curb, ! Item Name
  ,                                       ! Object End Use Key
  ,                                       ! Quantity {dimensionless}
  539.136,                                ! Material Cost {$}
  CostPerArea;                            ! Material Cost Units

OS:ComponentData,
  {5011c139-fe0b-4315-9c7f-b44b678a753a}, ! Handle
  Component Data 1,                       ! Name
  {3740e6f5-2da1-4b72-bb7f-e52e15e7dc99}, ! UUID
  {75fb0416-6050-4a33-9586-fdaa2f20b275}, ! Version UUID
  1363981176,                             ! Creation Timestamp
  1363981176,                             ! Version Timestamp
  {2f0f7683-6b52-4668-95f7-bbafea35e939}, ! Name of Object 1
  {4ab74168-9c74-4a6b-9619-3cbed4754d5b}, ! Name of Object 2
  {954a9c1f-5000-46ad-b864-d925b1a806d1}; ! Name of Object 3

