
OS:Version,
  {7185412c-fbc5-47a7-8a0b-b094190d755b}, ! Handle
  0.9.3;                                  ! Version Identifier

OS:Construction,
  {a0952775-731c-41b2-911b-aec6daa4e484}, ! Handle
  90.1-2001 Res B25 Window Fixed,         ! Name
  ,                                       ! Surface Rendering Name
  {df5720ae-4020-4811-93e3-5cb21b3b12d1}; ! Layer 1

OS:WindowMaterial:Glazing,
  {df5720ae-4020-4811-93e3-5cb21b3b12d1}, ! Handle
  Theoretical Glass [116],                ! Name
  SpectralAverage,                        ! Optical Data Type
  ,                                       ! Window Glass Spectral Data Set Name
  0.003,                                  ! Thickness {m}
  0.438713,                               ! Solar Transmittance at Normal Incidence
  0.511287,                               ! Front Side Solar Reflectance at Normal Incidence
  0.511287,                               ! Back Side Solar Reflectance at Normal Incidence
  0.460166,                               ! Visible Transmittance at Normal Incidence
  0.489834,                               ! Front Side Visible Reflectance at Normal Incidence
  0.489834,                               ! Back Side Visible Reflectance at Normal Incidence
  0,                                      ! Infrared Transmittance at Normal Incidence
  0.9,                                    ! Front Side Infrared Hemispherical Emissivity
  0.9,                                    ! Back Side Infrared Hemispherical Emissivity
  0.00819027;                             ! Conductivity {W/m-K}

OS:ComponentCost:LineItem,
  {d7af77b4-ce09-471b-ba0d-318bde69eca7}, ! Handle
  90.1-2001 Res B25 Window Fixed,         ! Name
  ,                                       ! Type
  Construction,                           ! Line Item Type
  90.1-2001 Res B25 Window Fixed,         ! Item Name
  ,                                       ! Object End Use Key
  ,                                       ! Quantity {dimensionless}
  586.91,                                 ! Material Cost {$}
  CostPerArea;                            ! Material Cost Units

OS:ComponentData,
  {00b23169-2b81-4393-b66c-ebf2a5494f94}, ! Handle
  Component Data 1,                       ! Name
  {69de10af-a15e-4f34-bb07-899a2cc22692}, ! UUID
  {500b4298-22c7-4610-a0ef-4d09608f8495}, ! Version UUID
  1363981617,                             ! Creation Timestamp
  1363981617,                             ! Version Timestamp
  {a0952775-731c-41b2-911b-aec6daa4e484}, ! Name of Object 1
  {df5720ae-4020-4811-93e3-5cb21b3b12d1}, ! Name of Object 2
  {d7af77b4-ce09-471b-ba0d-318bde69eca7}; ! Name of Object 3

