
OS:Version,
  {6f1ffd95-2d93-4c7c-b099-ad414231b53f}, ! Handle
  0.9.3;                                  ! Version Identifier

OS:Construction,
  {a173bd95-3732-4997-a03a-881bfcd69240}, ! Handle
  189.1-2009 Res 3A Attic Floor,          ! Name
  ,                                       ! Surface Rendering Name
  {ef496ef7-87db-4c36-a771-9f1e71f92994}, ! Layer 1
  {3f2dcc33-c204-47e2-a3d6-d751c76c6257}, ! Layer 2
  {83959444-02e4-4102-92f1-37ed3474dd68}; ! Layer 3

OS:Material,
  {ef496ef7-87db-4c36-a771-9f1e71f92994}, ! Handle
  1/2IN Gypsum Top,                       ! Name
  Smooth,                                 ! Roughness
  0.01271,                                ! Thickness {m}
  0.16,                                   ! Conductivity {W/m-K}
  784.9,                                  ! Density {kg/m3}
  830,                                    ! Specific Heat {J/kg-K}
  0.9,                                    ! Thermal Absorptance
  0.92,                                   ! Solar Absorptance
  0.92;                                   ! Visible Absorptance

OS:Material,
  {3f2dcc33-c204-47e2-a3d6-d751c76c6257}, ! Handle
  AtticFloor Insulation [4],              ! Name
  MediumRough,                            ! Roughness
  0.392234,                               ! Thickness {m}
  0.049,                                  ! Conductivity {W/m-K}
  265,                                    ! Density {kg/m3}
  836.8,                                  ! Specific Heat {J/kg-K}
  0.9,                                    ! Thermal Absorptance
  0.7,                                    ! Solar Absorptance
  0.7;                                    ! Visible Absorptance

OS:Material,
  {83959444-02e4-4102-92f1-37ed3474dd68}, ! Handle
  1/2IN Gypsum Bottom,                    ! Name
  Smooth,                                 ! Roughness
  0.01271,                                ! Thickness {m}
  0.16,                                   ! Conductivity {W/m-K}
  784.9,                                  ! Density {kg/m3}
  830,                                    ! Specific Heat {J/kg-K}
  0.9,                                    ! Thermal Absorptance
  0.92,                                   ! Solar Absorptance
  0.92;                                   ! Visible Absorptance

OS:ComponentCost:LineItem,
  {4ddfa934-b569-4cb0-8e40-b201dc6fc4f3}, ! Handle
  189.1-2009 Res 3A Attic Floor,          ! Name
  ,                                       ! Type
  Construction,                           ! Line Item Type
  189.1-2009 Res 3A Attic Floor,          ! Item Name
  ,                                       ! Object End Use Key
  ,                                       ! Quantity {dimensionless}
  37.058,                                 ! Material Cost {$}
  CostPerArea;                            ! Material Cost Units

