
OS:Version,
  {35ae9847-fb83-459d-bd6e-c3fd57b925ec}, ! Handle
  0.9.3;                                  ! Version Identifier

OS:Material,
  {7277ac85-f24c-4238-a647-5cdb80efe6e4}, ! Handle
  MAT-CC05 4 HW CONCRETE,                 ! Name
  Rough,                                  ! Roughness
  0.1016,                                 ! Thickness {m}
  1.311,                                  ! Conductivity {W/m-K}
  2240,                                   ! Density {kg/m3}
  836.8,                                  ! Specific Heat {J/kg-K}
  0.9,                                    ! Thermal Absorptance
  0.7,                                    ! Solar Absorptance
  0.7;                                    ! Visible Absorptance

OS:Construction,
  {068d67bd-219c-4621-91ed-8a454f3c64f2}, ! Handle
  189.1-2009 Nonres 5B Ext Slab Unheated - 4in Slab without Carpet, ! Name
  ,                                       ! Surface Rendering Name
  {7277ac85-f24c-4238-a647-5cdb80efe6e4}; ! Layer 1

OS:ComponentCost:LineItem,
  {3e6f4a51-e068-4712-828c-df716f546417}, ! Handle
  189.1-2009 Nonres 5B Ext Slab Unheated - 4in Slab without Carpet, ! Name
  ,                                       ! Type
  Construction,                           ! Line Item Type
  189.1-2009 Nonres 5B Ext Slab Unheated - 4in Slab without Carpet, ! Item Name
  ,                                       ! Object End Use Key
  ,                                       ! Quantity {dimensionless}
  45.52,                                  ! Material Cost {$}
  CostPerArea;                            ! Material Cost Units

