
OS:Version,
  {aeb0a8c2-79f9-42e2-91da-0943e13b7199}, ! Handle
  0.9.3;                                  ! Version Identifier

OS:Construction,
  {a186cdea-121f-4284-a0c3-f69661f48ce9}, ! Handle
  90.1 Windows Window Fixed 3471 Brk-Clr-Ins-V79-Ins-Clr, ! Name
  ,                                       ! Surface Rendering Name
  {7bf6d90d-fb2e-46b5-bcfd-1711c1ed1b45}; ! Layer 1

OS:WindowMaterial:Glazing,
  {7bf6d90d-fb2e-46b5-bcfd-1711c1ed1b45}, ! Handle
  Theoretical Glass [340],                ! Name
  SpectralAverage,                        ! Optical Data Type
  ,                                       ! Window Glass Spectral Data Set Name
  0.003,                                  ! Thickness {m}
  0.425891,                               ! Solar Transmittance at Normal Incidence
  0.524109,                               ! Front Side Solar Reflectance at Normal Incidence
  0.524109,                               ! Back Side Solar Reflectance at Normal Incidence
  0.569806,                               ! Visible Transmittance at Normal Incidence
  0.380194,                               ! Front Side Visible Reflectance at Normal Incidence
  0.380194,                               ! Back Side Visible Reflectance at Normal Incidence
  0,                                      ! Infrared Transmittance at Normal Incidence
  0.9,                                    ! Front Side Infrared Hemispherical Emissivity
  0.9,                                    ! Back Side Infrared Hemispherical Emissivity
  0.0088199;                              ! Conductivity {W/m-K}

OS:ComponentCost:LineItem,
  {5fed00c6-8567-47da-af82-7fd1d612690f}, ! Handle
  90.1 Windows Window Fixed 3471 Brk-Clr-Ins-V79-Ins-Clr, ! Name
  ,                                       ! Type
  Construction,                           ! Line Item Type
  90.1 Windows Window Fixed 3471 Brk-Clr-Ins-V79-Ins-Clr, ! Item Name
  ,                                       ! Object End Use Key
  ,                                       ! Quantity {dimensionless}
  0,                                      ! Material Cost {$}
  CostPerArea;                            ! Material Cost Units

OS:ComponentData,
  {23cf8173-e793-4a0b-b4d0-f82e7303a3db}, ! Handle
  Component Data 1,                       ! Name
  {f4c83e70-96ed-4d80-8ae1-db18e7af7369}, ! UUID
  {4c894c81-b6ce-4459-8038-4fbe046ed796}, ! Version UUID
  1363981009,                             ! Creation Timestamp
  1363981009,                             ! Version Timestamp
  {a186cdea-121f-4284-a0c3-f69661f48ce9}, ! Name of Object 1
  {7bf6d90d-fb2e-46b5-bcfd-1711c1ed1b45}, ! Name of Object 2
  {5fed00c6-8567-47da-af82-7fd1d612690f}; ! Name of Object 3

