
OS:Version,
  {278775b7-fa98-4e57-9d37-01ff795399c0}, ! Handle
  0.9.3;                                  ! Version Identifier

OS:ComponentCost:LineItem,
  {07f4ebfc-77a0-4c16-ba10-d2e8f1ec1242}, ! Handle
  90.1 Windows Window Fixed 3471 Brk-Clr-Ins-V79-Ins-Clr, ! Name
  ,                                       ! Type
  Construction,                           ! Line Item Type
  90.1 Windows Window Fixed 3471 Brk-Clr-Ins-V79-Ins-Clr, ! Item Name
  ,                                       ! Object End Use Key
  ,                                       ! Quantity {dimensionless}
  0,                                      ! Material Cost {$}
  CostPerArea;                            ! Material Cost Units

OS:Construction,
  {95b52ac9-3e43-4861-bf25-77d6898f5b3e}, ! Handle
  90.1 Windows Window Fixed 3471 Brk-Clr-Ins-V79-Ins-Clr, ! Name
  ,                                       ! Surface Rendering Name
  {67342401-ff54-4f7b-886b-402754d71ba5}; ! Layer 1

OS:WindowMaterial:Glazing,
  {67342401-ff54-4f7b-886b-402754d71ba5}, ! Handle
  Theoretical Glass [340],                ! Name
  SpectralAverage,                        ! Optical Data Type
  ,                                       ! Window Glass Spectral Data Set Name
  0.003,                                  ! Thickness {m}
  0.425891,                               ! Solar Transmittance at Normal Incidence
  0.524109,                               ! Front Side Solar Reflectance at Normal Incidence
  0.524109,                               ! Back Side Solar Reflectance at Normal Incidence
  0.569806,                               ! Visible Transmittance at Normal Incidence
  0.380194,                               ! Front Side Visible Reflectance at Normal Incidence
  0.380194,                               ! Back Side Visible Reflectance at Normal Incidence
  0,                                      ! Infrared Transmittance at Normal Incidence
  0.9,                                    ! Front Side Infrared Hemispherical Emissivity
  0.9,                                    ! Back Side Infrared Hemispherical Emissivity
  0.0088199;                              ! Conductivity {W/m-K}

