
OS:Version,
  {50ce0e4d-313b-4680-9f2b-6f3378467141}, ! Handle
  0.9.3;                                  ! Version Identifier

OS:ComponentCost:LineItem,
  {f98a2342-fe84-4d58-b773-363c59aeb4a5}, ! Handle
  90.1-2001 Nonres B9 Roof IEAD,          ! Name
  ,                                       ! Type
  Construction,                           ! Line Item Type
  90.1-2001 Nonres B9 Roof IEAD,          ! Item Name
  ,                                       ! Object End Use Key
  ,                                       ! Quantity {dimensionless}
  49.208,                                 ! Material Cost {$}
  CostPerArea;                            ! Material Cost Units

OS:Material,
  {890d3a84-2007-4dd0-af43-7027ebf3f0fd}, ! Handle
  Roof Membrane,                          ! Name
  VeryRough,                              ! Roughness
  0.0095,                                 ! Thickness {m}
  0.16,                                   ! Conductivity {W/m-K}
  1121.29,                                ! Density {kg/m3}
  1460,                                   ! Specific Heat {J/kg-K}
  0.9,                                    ! Thermal Absorptance
  0.7,                                    ! Solar Absorptance
  0.7;                                    ! Visible Absorptance

OS:Construction,
  {49ee0e59-5f6b-4cbb-9db3-76509c5a0518}, ! Handle
  90.1-2001 Nonres B9 Roof IEAD,          ! Name
  ,                                       ! Surface Rendering Name
  {890d3a84-2007-4dd0-af43-7027ebf3f0fd}, ! Layer 1
  {23d0b3a3-ce32-4b4f-95cd-d57f34178391}, ! Layer 2
  {f5384dc2-94fc-40da-883f-bf84a696eb8c}; ! Layer 3

OS:Material,
  {23d0b3a3-ce32-4b4f-95cd-d57f34178391}, ! Handle
  Roof Insulation,                        ! Name
  MediumRough,                            ! Roughness
  0.124958,                               ! Thickness {m}
  0.049,                                  ! Conductivity {W/m-K}
  265,                                    ! Density {kg/m3}
  836.8,                                  ! Specific Heat {J/kg-K}
  0.9,                                    ! Thermal Absorptance
  0.7,                                    ! Solar Absorptance
  0.7;                                    ! Visible Absorptance

OS:Material,
  {f5384dc2-94fc-40da-883f-bf84a696eb8c}, ! Handle
  Metal Decking,                          ! Name
  MediumSmooth,                           ! Roughness
  0.001524,                               ! Thickness {m}
  45.006,                                 ! Conductivity {W/m-K}
  7680,                                   ! Density {kg/m3}
  418.4,                                  ! Specific Heat {J/kg-K}
  0.9,                                    ! Thermal Absorptance
  0.7,                                    ! Solar Absorptance
  0.3;                                    ! Visible Absorptance

