
! 
OS:Version,
  {8503bb35-3288-4176-9c41-752f3d976c4b}, !- Handle
  1.13.0;                                 !- Version Identifier


! 
OS:Material,
  {061585d2-b4bb-49e3-8ec0-2448023bbc17}, !- Handle
  Aislamiento: SATE
WEBER: weber.therm placa EPS 70 (0.070 m)
R: 1.9 m2K/W,                             !- Name
  MediumRough,                                 !- Roughness
  0.07,                                    !- Thickness {m}
  0.037,                                    !- Conductivity {W/m-K}
  15.0,                                    !- Density {kg/m3}
  800.0,                                    !- Specific Heat {J/kg-K}
  0.9,                                    !- Thermal Absorptance
  0.6,                                    !- Solar Absorptance
  0.6;                                    !- Visible Absorptance

