
OS:Version,
  {656b6cbe-43fd-4de6-9966-b302b25fa8c7}, ! Handle
  0.9.3;                                  ! Version Identifier

OS:Construction,
  {7fa2e450-a5f9-4bec-b950-39f8d23a98a8}, ! Handle
  90.1 Windows Window Fixed 2160 Mtl-ClrSpe-Std-ClrSpe, ! Name
  ,                                       ! Surface Rendering Name
  {054ab5ee-a115-4216-925e-ba55802aca05}; ! Layer 1

OS:WindowMaterial:Glazing,
  {054ab5ee-a115-4216-925e-ba55802aca05}, ! Handle
  Theoretical Glass [593],                ! Name
  SpectralAverage,                        ! Optical Data Type
  ,                                       ! Window Glass Spectral Data Set Name
  0.003,                                  ! Thickness {m}
  0.502378,                               ! Solar Transmittance at Normal Incidence
  0.447622,                               ! Front Side Solar Reflectance at Normal Incidence
  0.447622,                               ! Back Side Solar Reflectance at Normal Incidence
  0.609218,                               ! Visible Transmittance at Normal Incidence
  0.340782,                               ! Front Side Visible Reflectance at Normal Incidence
  0.340782,                               ! Back Side Visible Reflectance at Normal Incidence
  0,                                      ! Infrared Transmittance at Normal Incidence
  0.9,                                    ! Front Side Infrared Hemispherical Emissivity
  0.9,                                    ! Back Side Infrared Hemispherical Emissivity
  0.0198691;                              ! Conductivity {W/m-K}

OS:ComponentCost:LineItem,
  {0d0f729f-3c7f-40d7-8958-ec4f02cc73a6}, ! Handle
  90.1 Windows Window Fixed 2160 Mtl-ClrSpe-Std-ClrSpe, ! Name
  ,                                       ! Type
  Construction,                           ! Line Item Type
  90.1 Windows Window Fixed 2160 Mtl-ClrSpe-Std-ClrSpe, ! Item Name
  ,                                       ! Object End Use Key
  ,                                       ! Quantity {dimensionless}
  0,                                      ! Material Cost {$}
  CostPerArea;                            ! Material Cost Units

OS:ComponentData,
  {541dbdfd-4128-4363-bc6e-c6213a7f3c3e}, ! Handle
  Component Data 1,                       ! Name
  {9691f70a-124f-4791-a95f-52f6beb22c3e}, ! UUID
  {7c5c5770-d080-4c4d-9cd0-8e418e8262fb}, ! Version UUID
  1363981031,                             ! Creation Timestamp
  1363981031,                             ! Version Timestamp
  {7fa2e450-a5f9-4bec-b950-39f8d23a98a8}, ! Name of Object 1
  {054ab5ee-a115-4216-925e-ba55802aca05}, ! Name of Object 2
  {0d0f729f-3c7f-40d7-8958-ec4f02cc73a6}; ! Name of Object 3

