
OS:Version,
  {372246db-f72c-49ac-b79c-048ebea9173e}, ! Handle
  0.9.3;                                  ! Version Identifier

OS:Construction,
  {6ea5bd1b-c9d4-4f43-a522-acfaeb36a716}, ! Handle
  90.1 Windows Window Fixed 2160 Mtl-ClrSpe-Std-ClrSpe, ! Name
  ,                                       ! Surface Rendering Name
  {0909afdb-3fe2-4abd-978a-c22d32de9a87}; ! Layer 1

OS:WindowMaterial:Glazing,
  {0909afdb-3fe2-4abd-978a-c22d32de9a87}, ! Handle
  Theoretical Glass [593],                ! Name
  SpectralAverage,                        ! Optical Data Type
  ,                                       ! Window Glass Spectral Data Set Name
  0.003,                                  ! Thickness {m}
  0.502378,                               ! Solar Transmittance at Normal Incidence
  0.447622,                               ! Front Side Solar Reflectance at Normal Incidence
  0.447622,                               ! Back Side Solar Reflectance at Normal Incidence
  0.609218,                               ! Visible Transmittance at Normal Incidence
  0.340782,                               ! Front Side Visible Reflectance at Normal Incidence
  0.340782,                               ! Back Side Visible Reflectance at Normal Incidence
  0,                                      ! Infrared Transmittance at Normal Incidence
  0.9,                                    ! Front Side Infrared Hemispherical Emissivity
  0.9,                                    ! Back Side Infrared Hemispherical Emissivity
  0.0198691;                              ! Conductivity {W/m-K}

OS:ComponentCost:LineItem,
  {45906075-b6f2-4d3e-bbec-0de27aaa4d91}, ! Handle
  90.1 Windows Window Fixed 2160 Mtl-ClrSpe-Std-ClrSpe, ! Name
  ,                                       ! Type
  Construction,                           ! Line Item Type
  90.1 Windows Window Fixed 2160 Mtl-ClrSpe-Std-ClrSpe, ! Item Name
  ,                                       ! Object End Use Key
  ,                                       ! Quantity {dimensionless}
  0,                                      ! Material Cost {$}
  CostPerArea;                            ! Material Cost Units

