
OS:Version,
  {7c1784de-0a32-464a-9af7-60b47307f6f5}, !- Handle
  1.1.0;                                  !- Version Identifier

OS:Construction,
  {5222b5cf-1797-4b97-8156-f9cf211c09b9}, !- Handle
  Dbl Green 6mm/13mm Arg,                 !- Name
  ,                                       !- Surface Rendering Name
  {a1999ccb-519f-46ce-ab86-1b8b4160f574}, !- Layer 1
  {edd63439-0f63-477d-a077-3ec7150d4a82}, !- Layer 2
  {922792c7-5b5a-47f9-a7d1-fb145c0074d3}; !- Layer 3

OS:WindowMaterial:Glazing,
  {a1999ccb-519f-46ce-ab86-1b8b4160f574}, !- Handle
  GREEN 6MM,                              !- Name
  SpectralAverage,                        !- Optical Data Type
  ,                                       !- Window Glass Spectral Data Set Name
  0.006,                                  !- Thickness {m}
  0.487,                                  !- Solar Transmittance at Normal Incidence
  0.056,                                  !- Front Side Solar Reflectance at Normal Incidence
  0.056,                                  !- Back Side Solar Reflectance at Normal Incidence
  0.749,                                  !- Visible Transmittance at Normal Incidence
  0.07,                                   !- Front Side Visible Reflectance at Normal Incidence
  0.07,                                   !- Back Side Visible Reflectance at Normal Incidence
  0,                                      !- Infrared Transmittance at Normal Incidence
  0.84,                                   !- Front Side Infrared Hemispherical Emissivity
  0.84,                                   !- Back Side Infrared Hemispherical Emissivity
  0.9;                                    !- Conductivity {W/m-K}

OS:WindowMaterial:Gas,
  {edd63439-0f63-477d-a077-3ec7150d4a82}, !- Handle
  ARGON 13MM,                             !- Name
  Argon,                                  !- Gas Type
  0.0127;                                 !- Thickness {m}

OS:WindowMaterial:Glazing,
  {922792c7-5b5a-47f9-a7d1-fb145c0074d3}, !- Handle
  CLEAR 6MM,                              !- Name
  SpectralAverage,                        !- Optical Data Type
  ,                                       !- Window Glass Spectral Data Set Name
  0.006,                                  !- Thickness {m}
  0.775,                                  !- Solar Transmittance at Normal Incidence
  0.071,                                  !- Front Side Solar Reflectance at Normal Incidence
  0.071,                                  !- Back Side Solar Reflectance at Normal Incidence
  0.881,                                  !- Visible Transmittance at Normal Incidence
  0.08,                                   !- Front Side Visible Reflectance at Normal Incidence
  0.08,                                   !- Back Side Visible Reflectance at Normal Incidence
  0,                                      !- Infrared Transmittance at Normal Incidence
  0.84,                                   !- Front Side Infrared Hemispherical Emissivity
  0.84,                                   !- Back Side Infrared Hemispherical Emissivity
  0.9;                                    !- Conductivity {W/m-K}

