
OS:Version,
  {c163921a-833b-43cb-9485-ef39b5479959}, ! Handle
  0.9.3;                                  ! Version Identifier

OS:Material,
  {6f88e5f4-54da-43e4-81f9-3173fa87093b}, ! Handle
  Metal Decking,                          ! Name
  MediumSmooth,                           ! Roughness
  0.001524,                               ! Thickness {m}
  45.006,                                 ! Conductivity {W/m-K}
  7680,                                   ! Density {kg/m3}
  418.4,                                  ! Specific Heat {J/kg-K}
  0.9,                                    ! Thermal Absorptance
  0.7,                                    ! Solar Absorptance
  0.3;                                    ! Visible Absorptance

OS:ComponentCost:LineItem,
  {65c2efd4-13cd-446c-a813-80a17ec3c307}, ! Handle
  189.1-2009 Res 7A Roof IEAD,            ! Name
  ,                                       ! Type
  Construction,                           ! Line Item Type
  189.1-2009 Res 7A Roof IEAD,            ! Item Name
  ,                                       ! Object End Use Key
  ,                                       ! Quantity {dimensionless}
  64.441,                                 ! Material Cost {$}
  CostPerArea;                            ! Material Cost Units

OS:Material,
  {9a54a635-4a29-4bf0-b592-56131634df81}, ! Handle
  Roof Membrane,                          ! Name
  VeryRough,                              ! Roughness
  0.0095,                                 ! Thickness {m}
  0.16,                                   ! Conductivity {W/m-K}
  1121.29,                                ! Density {kg/m3}
  1460,                                   ! Specific Heat {J/kg-K}
  0.9,                                    ! Thermal Absorptance
  0.7,                                    ! Solar Absorptance
  0.7;                                    ! Visible Absorptance

OS:Construction,
  {1ee27305-e2fd-4887-b8fe-ddc630b100b6}, ! Handle
  189.1-2009 Res 7A Roof IEAD,            ! Name
  ,                                       ! Surface Rendering Name
  {9a54a635-4a29-4bf0-b592-56131634df81}, ! Layer 1
  {33f0bd51-c779-4bf1-a97a-23382f8401bf}, ! Layer 2
  {6f88e5f4-54da-43e4-81f9-3173fa87093b}; ! Layer 3

OS:Material,
  {33f0bd51-c779-4bf1-a97a-23382f8401bf}, ! Handle
  Roof Insulation [26],                   ! Name
  MediumRough,                            ! Roughness
  0.294086,                               ! Thickness {m}
  0.049,                                  ! Conductivity {W/m-K}
  265,                                    ! Density {kg/m3}
  836.8,                                  ! Specific Heat {J/kg-K}
  0.9,                                    ! Thermal Absorptance
  0.7,                                    ! Solar Absorptance
  0.7;                                    ! Visible Absorptance

