
OS:Version,
  {a7ba9547-5783-452e-aee3-43dea7b80d33}, ! Handle
  0.9.3;                                  ! Version Identifier

OS:ComponentCost:LineItem,
  {d2ae880e-36a0-4c5e-b8b3-cc54d0df748d}, ! Handle
  90.1-2007 Nonres 4B Window Nonmetal framing, ! Name
  ,                                       ! Type
  Construction,                           ! Line Item Type
  90.1-2007 Nonres 4B Window Nonmetal framing, ! Item Name
  ,                                       ! Object End Use Key
  ,                                       ! Quantity {dimensionless}
  512.02,                                 ! Material Cost {$}
  CostPerArea;                            ! Material Cost Units

OS:Construction,
  {142249f7-f955-4ea8-8e63-9bdcfcd9d031}, ! Handle
  90.1-2007 Nonres 4B Window Nonmetal framing, ! Name
  ,                                       ! Surface Rendering Name
  {a10b0750-3da1-459c-b2b2-9ef7a574ca30}; ! Layer 1

OS:WindowMaterial:Glazing,
  {a10b0750-3da1-459c-b2b2-9ef7a574ca30}, ! Handle
  Theoretical Glass [179],                ! Name
  SpectralAverage,                        ! Optical Data Type
  ,                                       ! Window Glass Spectral Data Set Name
  0.003,                                  ! Thickness {m}
  0.395512,                               ! Solar Transmittance at Normal Incidence
  0.554488,                               ! Front Side Solar Reflectance at Normal Incidence
  0.554488,                               ! Back Side Solar Reflectance at Normal Incidence
  0.507883,                               ! Visible Transmittance at Normal Incidence
  0.442117,                               ! Front Side Visible Reflectance at Normal Incidence
  0.442117,                               ! Back Side Visible Reflectance at Normal Incidence
  0,                                      ! Infrared Transmittance at Normal Incidence
  0.9,                                    ! Front Side Infrared Hemispherical Emissivity
  0.9,                                    ! Back Side Infrared Hemispherical Emissivity
  0.0107603;                              ! Conductivity {W/m-K}

