
OS:Version,
  {92f88965-1d70-4ea8-bc4a-ce8941c7df04}, ! Handle
  0.9.3;                                  ! Version Identifier

OS:ComponentCost:LineItem,
  {5f9b94f9-0782-4f17-b023-4f34d08a874f}, ! Handle
  189.1-2009 Res 7A Ext Wall Mass,        ! Name
  ,                                       ! Type
  Construction,                           ! Line Item Type
  189.1-2009 Res 7A Ext Wall Mass,        ! Item Name
  ,                                       ! Object End Use Key
  ,                                       ! Quantity {dimensionless}
  75.386,                                 ! Material Cost {$}
  CostPerArea;                            ! Material Cost Units

OS:Material,
  {291ef1f7-91b9-4287-9090-89b11025af5d}, ! Handle
  Wall Insulation [44],                   ! Name
  MediumRough,                            ! Roughness
  0.110439,                               ! Thickness {m}
  0.0432,                                 ! Conductivity {W/m-K}
  91,                                     ! Density {kg/m3}
  837,                                    ! Specific Heat {J/kg-K}
  0.9,                                    ! Thermal Absorptance
  0.5,                                    ! Solar Absorptance
  0.5;                                    ! Visible Absorptance

OS:Material,
  {1d50d0aa-47b7-407a-9841-ae60c0f572b0}, ! Handle
  1/2IN Gypsum,                           ! Name
  Smooth,                                 ! Roughness
  0.01271,                                ! Thickness {m}
  0.16,                                   ! Conductivity {W/m-K}
  784.9,                                  ! Density {kg/m3}
  830,                                    ! Specific Heat {J/kg-K}
  0.9,                                    ! Thermal Absorptance
  0.92,                                   ! Solar Absorptance
  0.92;                                   ! Visible Absorptance

OS:Material,
  {e3d35deb-93fc-41eb-98e3-a056fc01a28f}, ! Handle
  1IN Stucco,                             ! Name
  Smooth,                                 ! Roughness
  0.0253,                                 ! Thickness {m}
  0.6918,                                 ! Conductivity {W/m-K}
  1858,                                   ! Density {kg/m3}
  837,                                    ! Specific Heat {J/kg-K}
  0.9,                                    ! Thermal Absorptance
  0.92,                                   ! Solar Absorptance
  0.92;                                   ! Visible Absorptance

OS:Material,
  {eb0729ad-1aff-41f6-bf07-f8760fb92264}, ! Handle
  8IN Concrete HW,                        ! Name
  MediumRough,                            ! Roughness
  0.2033,                                 ! Thickness {m}
  1.7296,                                 ! Conductivity {W/m-K}
  2243,                                   ! Density {kg/m3}
  837,                                    ! Specific Heat {J/kg-K}
  0.9,                                    ! Thermal Absorptance
  0.65,                                   ! Solar Absorptance
  0.65;                                   ! Visible Absorptance

OS:Construction,
  {1c72041f-7fc2-4710-aff8-3f3b19521958}, ! Handle
  189.1-2009 Res 7A Ext Wall Mass,        ! Name
  ,                                       ! Surface Rendering Name
  {e3d35deb-93fc-41eb-98e3-a056fc01a28f}, ! Layer 1
  {eb0729ad-1aff-41f6-bf07-f8760fb92264}, ! Layer 2
  {291ef1f7-91b9-4287-9090-89b11025af5d}, ! Layer 3
  {1d50d0aa-47b7-407a-9841-ae60c0f572b0}; ! Layer 4

