
OS:Version,
  {6f867882-d9d8-4b54-91bb-021d00f71d97}, ! Handle
  0.9.3;                                  ! Version Identifier

OS:Construction,
  {c9cdc9b8-d4a1-40a2-9e9b-454142d364ef}, ! Handle
  AEDG-SmOffice 2A Window Fixed,          ! Name
  ,                                       ! Surface Rendering Name
  {034e27ca-7db1-445c-8c88-160f53c23511}; ! Layer 1

OS:WindowMaterial:Glazing,
  {034e27ca-7db1-445c-8c88-160f53c23511}, ! Handle
  Theoretical Glass [231],                ! Name
  SpectralAverage,                        ! Optical Data Type
  ,                                       ! Window Glass Spectral Data Set Name
  0.003,                                  ! Thickness {m}
  0.434378,                               ! Solar Transmittance at Normal Incidence
  0.515622,                               ! Front Side Solar Reflectance at Normal Incidence
  0.515622,                               ! Back Side Solar Reflectance at Normal Incidence
  0.469723,                               ! Visible Transmittance at Normal Incidence
  0.480277,                               ! Front Side Visible Reflectance at Normal Incidence
  0.480277,                               ! Back Side Visible Reflectance at Normal Incidence
  0,                                      ! Infrared Transmittance at Normal Incidence
  0.9,                                    ! Front Side Infrared Hemispherical Emissivity
  0.9,                                    ! Back Side Infrared Hemispherical Emissivity
  0.0129919;                              ! Conductivity {W/m-K}

OS:ComponentCost:LineItem,
  {d0059ece-97ca-4921-a2c7-d21d1d1b3e20}, ! Handle
  AEDG-SmOffice 2A Window Fixed,          ! Name
  ,                                       ! Type
  Construction,                           ! Line Item Type
  AEDG-SmOffice 2A Window Fixed,          ! Item Name
  ,                                       ! Object End Use Key
  ,                                       ! Quantity {dimensionless}
  559.149,                                ! Material Cost {$}
  CostPerArea;                            ! Material Cost Units

OS:ComponentData,
  {914fd75b-1968-413b-8306-1d0d78d9536b}, ! Handle
  Component Data 1,                       ! Name
  {447b6777-2a1b-4309-85f7-97bc4f8f328d}, ! UUID
  {ee5d4351-71b0-49ff-8a45-aa12c7d8c376}, ! Version UUID
  1363981945,                             ! Creation Timestamp
  1363981945,                             ! Version Timestamp
  {c9cdc9b8-d4a1-40a2-9e9b-454142d364ef}, ! Name of Object 1
  {034e27ca-7db1-445c-8c88-160f53c23511}, ! Name of Object 2
  {d0059ece-97ca-4921-a2c7-d21d1d1b3e20}; ! Name of Object 3

