
OS:Version,
  {1afed775-1a11-40c3-b16c-14a77eaff47c}, ! Handle
  0.9.3;                                  ! Version Identifier

OS:Material,
  {e36d89e8-cce5-450d-94c9-22eb3dc76a82}, ! Handle
  MAT-CC05 8 HW CONCRETE,                 ! Name
  Rough,                                  ! Roughness
  0.20321,                                ! Thickness {m}
  1.311,                                  ! Conductivity {W/m-K}
  2240,                                   ! Density {kg/m3}
  836.8,                                  ! Specific Heat {J/kg-K}
  0.9,                                    ! Thermal Absorptance
  0.7,                                    ! Solar Absorptance
  0.7;                                    ! Visible Absorptance

OS:ComponentCost:LineItem,
  {80f0ef0e-51f7-4376-a3aa-487828bc2bad}, ! Handle
  90.1-1999 Res B12 Ext Slab Unheated - 8in Slab with Carpet, ! Name
  ,                                       ! Type
  Construction,                           ! Line Item Type
  90.1-1999 Res B12 Ext Slab Unheated - 8in Slab with Carpet, ! Item Name
  ,                                       ! Object End Use Key
  ,                                       ! Quantity {dimensionless}
  45.52,                                  ! Material Cost {$}
  CostPerArea;                            ! Material Cost Units

OS:Material:NoMass,
  {58c29604-0558-452a-90b6-e06961f04720}, ! Handle
  CP02 CARPET PAD,                        ! Name
  VeryRough,                              ! Roughness
  0.21648,                                ! Thermal Resistance {m2-K/W}
  0.9,                                    ! Thermal Absorptance
  0.7,                                    ! Solar Absorptance
  0.8;                                    ! Visible Absorptance

OS:Construction,
  {0acd2ef6-c0ab-4374-86ec-773db380464e}, ! Handle
  90.1-1999 Res B12 Ext Slab Unheated - 8in Slab with Carpet, ! Name
  ,                                       ! Surface Rendering Name
  {e36d89e8-cce5-450d-94c9-22eb3dc76a82}, ! Layer 1
  {58c29604-0558-452a-90b6-e06961f04720}; ! Layer 2

