
OS:Version,
  {433a7a5a-837e-47bc-bbff-9859cf91995c}, ! Handle
  0.9.3;                                  ! Version Identifier

OS:Material,
  {99a81de8-81b2-471c-8e25-3ee88e2f2584}, ! Handle
  1IN Stucco,                             ! Name
  Smooth,                                 ! Roughness
  0.0253,                                 ! Thickness {m}
  0.6918,                                 ! Conductivity {W/m-K}
  1858,                                   ! Density {kg/m3}
  837,                                    ! Specific Heat {J/kg-K}
  0.9,                                    ! Thermal Absorptance
  0.92,                                   ! Solar Absorptance
  0.92;                                   ! Visible Absorptance

OS:Material,
  {7119f2ce-96e4-412c-8744-259a700e6d83}, ! Handle
  Wall Insulation [42],                   ! Name
  MediumRough,                            ! Roughness
  0.0913783,                              ! Thickness {m}
  0.0432,                                 ! Conductivity {W/m-K}
  91,                                     ! Density {kg/m3}
  837,                                    ! Specific Heat {J/kg-K}
  0.9,                                    ! Thermal Absorptance
  0.5,                                    ! Solar Absorptance
  0.5;                                    ! Visible Absorptance

OS:Material,
  {6104d58b-7048-4514-beb7-345f28705fb0}, ! Handle
  8IN Concrete HW,                        ! Name
  MediumRough,                            ! Roughness
  0.2033,                                 ! Thickness {m}
  1.7296,                                 ! Conductivity {W/m-K}
  2243,                                   ! Density {kg/m3}
  837,                                    ! Specific Heat {J/kg-K}
  0.9,                                    ! Thermal Absorptance
  0.65,                                   ! Solar Absorptance
  0.65;                                   ! Visible Absorptance

OS:Material,
  {8fc34f46-e269-45f7-94c4-f4bd2ad45004}, ! Handle
  1/2IN Gypsum,                           ! Name
  Smooth,                                 ! Roughness
  0.01271,                                ! Thickness {m}
  0.16,                                   ! Conductivity {W/m-K}
  784.9,                                  ! Density {kg/m3}
  830,                                    ! Specific Heat {J/kg-K}
  0.9,                                    ! Thermal Absorptance
  0.92,                                   ! Solar Absorptance
  0.92;                                   ! Visible Absorptance

OS:Construction,
  {508aa806-6019-477a-a9e4-f665d73ed24b}, ! Handle
  189.1-2009 Res 5B Ext Wall Mass,        ! Name
  ,                                       ! Surface Rendering Name
  {99a81de8-81b2-471c-8e25-3ee88e2f2584}, ! Layer 1
  {6104d58b-7048-4514-beb7-345f28705fb0}, ! Layer 2
  {7119f2ce-96e4-412c-8744-259a700e6d83}, ! Layer 3
  {8fc34f46-e269-45f7-94c4-f4bd2ad45004}; ! Layer 4

OS:ComponentCost:LineItem,
  {0e8e3cf7-c1ab-49df-8a3c-e142dd38ef8c}, ! Handle
  189.1-2009 Res 5B Ext Wall Mass,        ! Name
  ,                                       ! Type
  Construction,                           ! Line Item Type
  189.1-2009 Res 5B Ext Wall Mass,        ! Item Name
  ,                                       ! Object End Use Key
  ,                                       ! Quantity {dimensionless}
  70.511,                                 ! Material Cost {$}
  CostPerArea;                            ! Material Cost Units

