
OS:Version,
  {0bf1ed8c-711f-4f85-afe1-af0064d4a7b4}, ! Handle
  0.9.3;                                  ! Version Identifier

OS:Material,
  {1c614f67-7c10-4ff1-bb24-96642cf1c289}, ! Handle
  1/2IN Gypsum,                           ! Name
  Smooth,                                 ! Roughness
  0.01271,                                ! Thickness {m}
  0.16,                                   ! Conductivity {W/m-K}
  784.9,                                  ! Density {kg/m3}
  830,                                    ! Specific Heat {J/kg-K}
  0.9,                                    ! Thermal Absorptance
  0.92,                                   ! Solar Absorptance
  0.92;                                   ! Visible Absorptance

OS:ComponentCost:LineItem,
  {6c3d3e70-4cd0-42d0-ac79-3b835fd48fae}, ! Handle
  90.1-2001 Res B22 Ext Wall Metal Building, ! Name
  ,                                       ! Type
  Construction,                           ! Line Item Type
  90.1-2001 Res B22 Ext Wall Metal Building, ! Item Name
  ,                                       ! Object End Use Key
  ,                                       ! Quantity {dimensionless}
  107.698,                                ! Material Cost {$}
  CostPerArea;                            ! Material Cost Units

OS:Material,
  {5b0698a0-c502-4ae8-93da-f0e453e0aed9}, ! Handle
  Wall Insulation [9],                    ! Name
  MediumRough,                            ! Roughness
  0.128642,                               ! Thickness {m}
  0.045,                                  ! Conductivity {W/m-K}
  265,                                    ! Density {kg/m3}
  836.8,                                  ! Specific Heat {J/kg-K}
  0.9,                                    ! Thermal Absorptance
  0.7,                                    ! Solar Absorptance
  0.7;                                    ! Visible Absorptance

OS:Construction,
  {83d425f7-1186-4f75-81ab-203a9fdcb7ef}, ! Handle
  90.1-2001 Res B22 Ext Wall Metal Building, ! Name
  ,                                       ! Surface Rendering Name
  {ffbdb957-52ad-4354-a938-74c33b9d65e7}, ! Layer 1
  {5b0698a0-c502-4ae8-93da-f0e453e0aed9}, ! Layer 2
  {1c614f67-7c10-4ff1-bb24-96642cf1c289}; ! Layer 3

OS:Material,
  {ffbdb957-52ad-4354-a938-74c33b9d65e7}, ! Handle
  Metal Siding,                           ! Name
  Smooth,                                 ! Roughness
  0.0015,                                 ! Thickness {m}
  44.96,                                  ! Conductivity {W/m-K}
  7688.86,                                ! Density {kg/m3}
  410,                                    ! Specific Heat {J/kg-K}
  0.9,                                    ! Thermal Absorptance
  0.2,                                    ! Solar Absorptance
  0.2;                                    ! Visible Absorptance

