
OS:Version,
  {76b17f01-8ed4-4594-805e-a29ab4da2d6e}, ! Handle
  0.9.3;                                  ! Version Identifier

OS:Material,
  {d4d9e43a-6b6c-4ba5-b750-1f279fee7d40}, ! Handle
  1IN Wood Decking,                       ! Name
  MediumSmooth,                           ! Roughness
  0.0254,                                 ! Thickness {m}
  0.1211,                                 ! Conductivity {W/m-K}
  593,                                    ! Density {kg/m3}
  2510,                                   ! Specific Heat {J/kg-K}
  0.9,                                    ! Thermal Absorptance
  0.78,                                   ! Solar Absorptance
  0.78;                                   ! Visible Absorptance

OS:ComponentCost:LineItem,
  {74e5d47d-65e2-49d6-890e-b3e944f7726d}, ! Handle
  90.1-2001 Res B6 Roof Attic and Other,  ! Name
  ,                                       ! Type
  Construction,                           ! Line Item Type
  90.1-2001 Res B6 Roof Attic and Other,  ! Item Name
  ,                                       ! Object End Use Key
  ,                                       ! Quantity {dimensionless}
  33.39,                                  ! Material Cost {$}
  CostPerArea;                            ! Material Cost Units

OS:Material,
  {c48a8603-d2f7-4488-b3eb-07629ab54a35}, ! Handle
  Wood Shingles,                          ! Name
  VeryRough,                              ! Roughness
  0.0178,                                 ! Thickness {m}
  0.115,                                  ! Conductivity {W/m-K}
  513,                                    ! Density {kg/m3}
  1255,                                   ! Specific Heat {J/kg-K}
  0.9,                                    ! Thermal Absorptance
  0.78,                                   ! Solar Absorptance
  0.78;                                   ! Visible Absorptance

OS:Construction,
  {d38ab189-218e-471b-81de-f3c8081a030f}, ! Handle
  90.1-2001 Res B6 Roof Attic and Other,  ! Name
  ,                                       ! Surface Rendering Name
  {c48a8603-d2f7-4488-b3eb-07629ab54a35}, ! Layer 1
  {d4d9e43a-6b6c-4ba5-b750-1f279fee7d40}, ! Layer 2
  {5165fb1b-01a6-4ff4-9176-66554e621b33}, ! Layer 3
  {8ab2ed73-0379-4134-8cbe-d9d1c256356b}; ! Layer 4

OS:Material,
  {5165fb1b-01a6-4ff4-9176-66554e621b33}, ! Handle
  Roof Insulation [2],                    ! Name
  MediumRough,                            ! Roughness
  0.221604,                               ! Thickness {m}
  0.049,                                  ! Conductivity {W/m-K}
  265,                                    ! Density {kg/m3}
  836.8,                                  ! Specific Heat {J/kg-K}
  0.9,                                    ! Thermal Absorptance
  0.7,                                    ! Solar Absorptance
  0.7;                                    ! Visible Absorptance

OS:Material,
  {8ab2ed73-0379-4134-8cbe-d9d1c256356b}, ! Handle
  1/2IN Gypsum,                           ! Name
  Smooth,                                 ! Roughness
  0.01271,                                ! Thickness {m}
  0.16,                                   ! Conductivity {W/m-K}
  784.9,                                  ! Density {kg/m3}
  830,                                    ! Specific Heat {J/kg-K}
  0.9,                                    ! Thermal Absorptance
  0.92,                                   ! Solar Absorptance
  0.92;                                   ! Visible Absorptance

