
OS:Version,
  {a2e5ec17-fcdc-4f64-8d8d-62430a4e1258}, ! Handle
  0.9.3;                                  ! Version Identifier

OS:Construction,
  {4cc43fb9-c588-4c65-b588-e45167ced34c}, ! Handle
  189.1-2009 Nonres 8A Window Metal framing curtainwall-storefront, ! Name
  ,                                       ! Surface Rendering Name
  {a1b45101-c72b-44a9-808c-a12b9d8c29c0}; ! Layer 1

OS:WindowMaterial:Glazing,
  {a1b45101-c72b-44a9-808c-a12b9d8c29c0}, ! Handle
  Theoretical Glass [219],                ! Name
  SpectralAverage,                        ! Optical Data Type
  ,                                       ! Window Glass Spectral Data Set Name
  0.003,                                  ! Thickness {m}
  0.428764,                               ! Solar Transmittance at Normal Incidence
  0.521236,                               ! Front Side Solar Reflectance at Normal Incidence
  0.521236,                               ! Back Side Solar Reflectance at Normal Incidence
  0.450308,                               ! Visible Transmittance at Normal Incidence
  0.499692,                               ! Front Side Visible Reflectance at Normal Incidence
  0.499692,                               ! Back Side Visible Reflectance at Normal Incidence
  0,                                      ! Infrared Transmittance at Normal Incidence
  0.9,                                    ! Front Side Infrared Hemispherical Emissivity
  0.9,                                    ! Back Side Infrared Hemispherical Emissivity
  0.0071399;                              ! Conductivity {W/m-K}

OS:ComponentCost:LineItem,
  {295adaff-7e77-4789-a915-3e2565b7dcd2}, ! Handle
  189.1-2009 Nonres 8A Window Metal framing curtainwall-storefront, ! Name
  ,                                       ! Type
  Construction,                           ! Line Item Type
  189.1-2009 Nonres 8A Window Metal framing curtainwall-storefront, ! Item Name
  ,                                       ! Object End Use Key
  ,                                       ! Quantity {dimensionless}
  508.362,                                ! Material Cost {$}
  CostPerArea;                            ! Material Cost Units

OS:ComponentData,
  {d10b7109-320f-463c-8fe4-1a8113932300}, ! Handle
  Component Data 1,                       ! Name
  {1c0e1945-83a1-4bd2-9a78-fac14f0822a5}, ! UUID
  {a733f7ae-8723-4e3e-bb62-60f69c28ee39}, ! Version UUID
  1363980957,                             ! Creation Timestamp
  1363980957,                             ! Version Timestamp
  {4cc43fb9-c588-4c65-b588-e45167ced34c}, ! Name of Object 1
  {a1b45101-c72b-44a9-808c-a12b9d8c29c0}, ! Name of Object 2
  {295adaff-7e77-4789-a915-3e2565b7dcd2}; ! Name of Object 3

