
! 
OS:Version,
  {9c37d538-db0d-4a47-9850-5bede7e76bd5}, !- Handle
  1.13.0;                                 !- Version Identifier


! {"nombreProductoCorto": "CLIMALIT PLUS con COOL LITE KNT 164 F2 6 (16 argon90%) 44.2", "codigoEAN": "", "handle": "4747b10e-2b2c-4de9-8081-9e29cdcc958d", "g": 0.46, "tV": 0.54, "u": 1.4, "nombreProducto": "CLIMALIT PLUS con COOL LITE KNT 164 F2 6 (16 argon90%) 44.2\nU:1.4 W/m2K - g:0.46 - Tv: 0.54"}
OS:WindowMaterial:SimpleGlazingSystem,
  {4747b10e-2b2c-4de9-8081-9e29cdcc958d}, !- Handle
  CLIMALIT PLUS con COOL LITE KNT 164 F2 6 (16 argon90%) 44.2, !- Name
  1.4,                                    !- U-Factor {W/m2-K}
  0.46,                                    !- Solar Heat Gain Coefficient
  0.54;                                    !- Visible Transmittance     
  
  
OS:Construction,
  {c0578d75-d248-4d7e-91bd-62e7a8f0bfc0}, !- Handle
  CLIMALIT PLUS con COOL LITE KNT 164 F2 6 (16 argon90%) 44.2,                         !- Name
  ,                                       !- Surface Rendering Name
  {4747b10e-2b2c-4de9-8081-9e29cdcc958d}; !- Layer 1  

