
OS:Version,
  {2a1ec191-d3fa-4339-8ec2-6035364be7d5}, ! Handle
  0.9.3;                                  ! Version Identifier

OS:Construction,
  {b10e6fe0-e063-436c-93d3-a7def29b8f6d}, !- Handle
  CLIMALIT PLUS con COOL LITE KNT 164 F2 6 (16 argon90%) 44.2,                         !- Name
  ,                                       !- Surface Rendering Name
  {4747b10e-2b2c-4de9-8081-9e29cdcc958d}; !- Layer 1  
  



        
OS:WindowMaterial:SimpleGlazingSystem,
  {4747b10e-2b2c-4de9-8081-9e29cdcc958d}, !- Handle
  CLIMALIT PLUS con COOL LITE KNT 164 F2 6 (16 argon90%) 44.2, !- Name
  1.4,                                    !- U-Factor {W/m2-K}
  0.46,                                    !- Solar Heat Gain Coefficient
  0.54;                                    !- Visible Transmittance     


OS:ComponentCost:LineItem,
  {248bc5a0-64b9-4153-922b-b70e874c4951}, ! Handle
  CLIMALIT PLUS con COOL LITE KNT 164 F2 6 (16 argon90%) 44.2,        ! Name
  ,                                       ! Type
  Construction,                           ! Line Item Type
  CLIMALIT PLUS con COOL LITE KNT 164 F2 6 (16 argon90%) 44.2,        ! Item Name
  ,                                       ! Object End Use Key
  ,                                       ! Quantity {dimensionless}
  600.0,                                ! Material Cost {$}
  CostPerArea;                            ! Material Cost Units



OS:ComponentData,
  {7324474e-b750-40a4-af0d-27bf73d6fd1e}, ! Handle
  Component Data 1,                       ! Name
  {09e42e8a-6e5e-45c5-b151-0b5d2ad4e290}, ! UUID
  {18ecd4cc-e985-47ed-8e78-e52c06e5d57f}, ! Version UUID
  1487924013,                             ! Creation Timestamp
  1487924013,                             ! Version Timestamp
  {b10e6fe0-e063-436c-93d3-a7def29b8f6d}, ! Name of Object 1
  {4747b10e-2b2c-4de9-8081-9e29cdcc958d}, ! Name of Object 2
  {248bc5a0-64b9-4153-922b-b70e874c4951}; ! Name of Object 3

  

