
OS:Version,
  {5998a241-095b-423b-a7b2-7f8d0018d885}, ! Handle
  0.9.3;                                  ! Version Identifier

OS:Construction,
  {6cf44c5d-4900-4fbe-a46c-2859241cebfa}, ! Handle
  90.1-2007 Nonres 7A Window Nonmetal framing, ! Name
  ,                                       ! Surface Rendering Name
  {5cdf3dbf-eb4a-48d2-a3aa-d1109de0cfb2}; ! Layer 1

OS:WindowMaterial:Glazing,
  {5cdf3dbf-eb4a-48d2-a3aa-d1109de0cfb2}, ! Handle
  Theoretical Glass [188],                ! Name
  SpectralAverage,                        ! Optical Data Type
  ,                                       ! Window Glass Spectral Data Set Name
  0.003,                                  ! Thickness {m}
  0.445058,                               ! Solar Transmittance at Normal Incidence
  0.504942,                               ! Front Side Solar Reflectance at Normal Incidence
  0.504942,                               ! Back Side Solar Reflectance at Normal Incidence
  0.450308,                               ! Visible Transmittance at Normal Incidence
  0.499692,                               ! Front Side Visible Reflectance at Normal Incidence
  0.499692,                               ! Back Side Visible Reflectance at Normal Incidence
  0,                                      ! Infrared Transmittance at Normal Incidence
  0.9,                                    ! Front Side Infrared Hemispherical Emissivity
  0.9,                                    ! Back Side Infrared Hemispherical Emissivity
  0.00881723;                             ! Conductivity {W/m-K}

OS:ComponentCost:LineItem,
  {7a04807f-6d68-451f-925c-f50a98c297b5}, ! Handle
  90.1-2007 Nonres 7A Window Nonmetal framing, ! Name
  ,                                       ! Type
  Construction,                           ! Line Item Type
  90.1-2007 Nonres 7A Window Nonmetal framing, ! Item Name
  ,                                       ! Object End Use Key
  ,                                       ! Quantity {dimensionless}
  508.362,                                ! Material Cost {$}
  CostPerArea;                            ! Material Cost Units

OS:ComponentData,
  {46253f62-e3fe-40c9-ae30-6578a19d39f7}, ! Handle
  Component Data 1,                       ! Name
  {d04e8491-9b62-472c-a174-254636a6fd11}, ! UUID
  {78a6df43-4611-4827-99dc-845b632fa397}, ! Version UUID
  1363981822,                             ! Creation Timestamp
  1363981822,                             ! Version Timestamp
  {6cf44c5d-4900-4fbe-a46c-2859241cebfa}, ! Name of Object 1
  {5cdf3dbf-eb4a-48d2-a3aa-d1109de0cfb2}, ! Name of Object 2
  {7a04807f-6d68-451f-925c-f50a98c297b5}; ! Name of Object 3

