
OS:Version,
  {775e41b2-387d-4dc3-968e-5bd7b0b41a26}, ! Handle
  0.9.3;                                  ! Version Identifier

OS:WindowMaterial:Glazing,
  {a3a53203-a829-4fd8-ae31-198e96d1e3d0}, ! Handle
  Theoretical Glass [188],                ! Name
  SpectralAverage,                        ! Optical Data Type
  ,                                       ! Window Glass Spectral Data Set Name
  0.003,                                  ! Thickness {m}
  0.445058,                               ! Solar Transmittance at Normal Incidence
  0.504942,                               ! Front Side Solar Reflectance at Normal Incidence
  0.504942,                               ! Back Side Solar Reflectance at Normal Incidence
  0.450308,                               ! Visible Transmittance at Normal Incidence
  0.499692,                               ! Front Side Visible Reflectance at Normal Incidence
  0.499692,                               ! Back Side Visible Reflectance at Normal Incidence
  0,                                      ! Infrared Transmittance at Normal Incidence
  0.9,                                    ! Front Side Infrared Hemispherical Emissivity
  0.9,                                    ! Back Side Infrared Hemispherical Emissivity
  0.00881723;                             ! Conductivity {W/m-K}

OS:ComponentCost:LineItem,
  {07fe2de0-8f16-4899-9532-fe036cab4166}, ! Handle
  90.1-2007 Nonres 7A Window Nonmetal framing, ! Name
  ,                                       ! Type
  Construction,                           ! Line Item Type
  90.1-2007 Nonres 7A Window Nonmetal framing, ! Item Name
  ,                                       ! Object End Use Key
  ,                                       ! Quantity {dimensionless}
  508.362,                                ! Material Cost {$}
  CostPerArea;                            ! Material Cost Units

OS:Construction,
  {1577d115-10da-4821-b5d4-12f01c16a6e3}, ! Handle
  90.1-2007 Nonres 7A Window Nonmetal framing, ! Name
  ,                                       ! Surface Rendering Name
  {a3a53203-a829-4fd8-ae31-198e96d1e3d0}; ! Layer 1

