
OS:Version,
  {8762cdae-a305-41f7-994f-45f62e0e0183}, ! Handle
  0.9.3;                                  ! Version Identifier

OS:Construction,
  {f8f243d6-6914-4640-9bf9-f273de0c0339}, ! Handle
  90.1-2004 Res 1A Attic Floor,           ! Name
  ,                                       ! Surface Rendering Name
  {e7b20472-2818-4703-a6fe-0d6550b4dab3}, ! Layer 1
  {f66feb74-d8fa-4c1e-bcf4-668642109e2e}, ! Layer 2
  {ea4c0f16-b9ed-408e-b127-e72224367c3c}; ! Layer 3

OS:Material,
  {e7b20472-2818-4703-a6fe-0d6550b4dab3}, ! Handle
  1/2IN Gypsum Top,                       ! Name
  Smooth,                                 ! Roughness
  0.01271,                                ! Thickness {m}
  0.16,                                   ! Conductivity {W/m-K}
  784.9,                                  ! Density {kg/m3}
  830,                                    ! Specific Heat {J/kg-K}
  0.9,                                    ! Thermal Absorptance
  0.92,                                   ! Solar Absorptance
  0.92;                                   ! Visible Absorptance

OS:Material,
  {f66feb74-d8fa-4c1e-bcf4-668642109e2e}, ! Handle
  AtticFloor Insulation [1],              ! Name
  MediumRough,                            ! Roughness
  0.303719,                               ! Thickness {m}
  0.049,                                  ! Conductivity {W/m-K}
  265,                                    ! Density {kg/m3}
  836.8,                                  ! Specific Heat {J/kg-K}
  0.9,                                    ! Thermal Absorptance
  0.7,                                    ! Solar Absorptance
  0.7;                                    ! Visible Absorptance

OS:Material,
  {ea4c0f16-b9ed-408e-b127-e72224367c3c}, ! Handle
  1/2IN Gypsum Bottom,                    ! Name
  Smooth,                                 ! Roughness
  0.01271,                                ! Thickness {m}
  0.16,                                   ! Conductivity {W/m-K}
  784.9,                                  ! Density {kg/m3}
  830,                                    ! Specific Heat {J/kg-K}
  0.9,                                    ! Thermal Absorptance
  0.92,                                   ! Solar Absorptance
  0.92;                                   ! Visible Absorptance

OS:ComponentCost:LineItem,
  {4e5a9148-52ed-4861-9878-dda55a90943d}, ! Handle
  90.1-2004 Res 1A Attic Floor,           ! Name
  ,                                       ! Type
  Construction,                           ! Line Item Type
  90.1-2004 Res 1A Attic Floor,           ! Item Name
  ,                                       ! Object End Use Key
  ,                                       ! Quantity {dimensionless}
  35.009,                                 ! Material Cost {$}
  CostPerArea;                            ! Material Cost Units

