
OS:Version,
  {3e28ba3d-48dd-4929-a696-e246b035163d}, ! Handle
  0.9.3;                                  ! Version Identifier

OS:Material,
  {068eba74-d210-48b6-831a-4c8cb67268d7}, ! Handle
  Metal Siding,                           ! Name
  Smooth,                                 ! Roughness
  0.0015,                                 ! Thickness {m}
  44.96,                                  ! Conductivity {W/m-K}
  7688.86,                                ! Density {kg/m3}
  410,                                    ! Specific Heat {J/kg-K}
  0.9,                                    ! Thermal Absorptance
  0.2,                                    ! Solar Absorptance
  0.2;                                    ! Visible Absorptance

OS:ComponentCost:LineItem,
  {d43c9c77-0551-430e-9f81-ff9bd48b693a}, ! Handle
  90.1-2007 Res 3A Ext Wall Metal Building, ! Name
  ,                                       ! Type
  Construction,                           ! Line Item Type
  90.1-2007 Res 3A Ext Wall Metal Building, ! Item Name
  ,                                       ! Object End Use Key
  ,                                       ! Quantity {dimensionless}
  98.78,                                  ! Material Cost {$}
  CostPerArea;                            ! Material Cost Units

OS:Material,
  {52643698-de41-4bd5-a798-8ff6563b381d}, ! Handle
  1/2IN Gypsum,                           ! Name
  Smooth,                                 ! Roughness
  0.01271,                                ! Thickness {m}
  0.16,                                   ! Conductivity {W/m-K}
  784.9,                                  ! Density {kg/m3}
  830,                                    ! Specific Heat {J/kg-K}
  0.9,                                    ! Thermal Absorptance
  0.92,                                   ! Solar Absorptance
  0.92;                                   ! Visible Absorptance

OS:Material,
  {0d1af458-c175-4e16-959f-8736dd342fba}, ! Handle
  Wall Insulation,                        ! Name
  MediumRough,                            ! Roughness
  0.0598725,                              ! Thickness {m}
  0.045,                                  ! Conductivity {W/m-K}
  265,                                    ! Density {kg/m3}
  836.8,                                  ! Specific Heat {J/kg-K}
  0.9,                                    ! Thermal Absorptance
  0.7,                                    ! Solar Absorptance
  0.7;                                    ! Visible Absorptance

OS:Construction,
  {d73d5407-f702-4ad0-840e-a099a62b8557}, ! Handle
  90.1-2007 Res 3A Ext Wall Metal Building, ! Name
  ,                                       ! Surface Rendering Name
  {068eba74-d210-48b6-831a-4c8cb67268d7}, ! Layer 1
  {0d1af458-c175-4e16-959f-8736dd342fba}, ! Layer 2
  {52643698-de41-4bd5-a798-8ff6563b381d}; ! Layer 3

