
OS:Version,
  {a3790623-f1c5-47bf-8b8b-378216fe9d85}, ! Handle
  0.9.3;                                  ! Version Identifier

OS:Material,
  {0ca84ae0-5c15-40b3-91bb-7e035ab00fc5}, ! Handle
  MAT-CC05 4 HW CONCRETE,                 ! Name
  Rough,                                  ! Roughness
  0.1016,                                 ! Thickness {m}
  1.311,                                  ! Conductivity {W/m-K}
  2240,                                   ! Density {kg/m3}
  836.8,                                  ! Specific Heat {J/kg-K}
  0.9,                                    ! Thermal Absorptance
  0.7,                                    ! Solar Absorptance
  0.7;                                    ! Visible Absorptance

OS:ComponentCost:LineItem,
  {ff38f75a-9041-4802-a3ff-8b6312c36276}, ! Handle
  AEDG-SmOffice 5B Ext Slab Unheated - 4in Slab without Carpet, ! Name
  ,                                       ! Type
  Construction,                           ! Line Item Type
  AEDG-SmOffice 5B Ext Slab Unheated - 4in Slab without Carpet, ! Item Name
  ,                                       ! Object End Use Key
  ,                                       ! Quantity {dimensionless}
  45.52,                                  ! Material Cost {$}
  CostPerArea;                            ! Material Cost Units

OS:Construction,
  {c48aa1f4-d1d5-4c8b-a74f-3a1114f3b52a}, ! Handle
  AEDG-SmOffice 5B Ext Slab Unheated - 4in Slab without Carpet, ! Name
  ,                                       ! Surface Rendering Name
  {0ca84ae0-5c15-40b3-91bb-7e035ab00fc5}; ! Layer 1

