
OS:Version,
  {f765fc46-de23-4f15-9181-da0f6e72359f}, ! Handle
  0.9.3;                                  ! Version Identifier

OS:Construction,
  {45786abf-a479-46d0-8870-f9d9c66d951e}, ! Handle
  AEDG-SmOffice 5B Ext Slab Unheated - 4in Slab without Carpet, ! Name
  ,                                       ! Surface Rendering Name
  {d4746bf6-c508-4202-8fdf-36dbc1dbc9cd}; ! Layer 1

OS:Material,
  {d4746bf6-c508-4202-8fdf-36dbc1dbc9cd}, ! Handle
  MAT-CC05 4 HW CONCRETE,                 ! Name
  Rough,                                  ! Roughness
  0.1016,                                 ! Thickness {m}
  1.311,                                  ! Conductivity {W/m-K}
  2240,                                   ! Density {kg/m3}
  836.8,                                  ! Specific Heat {J/kg-K}
  0.9,                                    ! Thermal Absorptance
  0.7,                                    ! Solar Absorptance
  0.7;                                    ! Visible Absorptance

OS:ComponentCost:LineItem,
  {cccf0256-be25-4d5d-b4d9-2178bd4d6ecb}, ! Handle
  AEDG-SmOffice 5B Ext Slab Unheated - 4in Slab without Carpet, ! Name
  ,                                       ! Type
  Construction,                           ! Line Item Type
  AEDG-SmOffice 5B Ext Slab Unheated - 4in Slab without Carpet, ! Item Name
  ,                                       ! Object End Use Key
  ,                                       ! Quantity {dimensionless}
  45.52,                                  ! Material Cost {$}
  CostPerArea;                            ! Material Cost Units

OS:ComponentData,
  {cc31d99d-9cf3-41ca-9a8b-1078d757e3e4}, ! Handle
  Component Data 1,                       ! Name
  {3a4f6209-ff82-4627-b064-95353a3d1609}, ! UUID
  {e0cae3fc-4377-42e8-a585-a8032337fe57}, ! Version UUID
  1363981956,                             ! Creation Timestamp
  1363981956,                             ! Version Timestamp
  {45786abf-a479-46d0-8870-f9d9c66d951e}, ! Name of Object 1
  {d4746bf6-c508-4202-8fdf-36dbc1dbc9cd}, ! Name of Object 2
  {cccf0256-be25-4d5d-b4d9-2178bd4d6ecb}; ! Name of Object 3

