
! 
OS:Version,
  {9c37d538-db0d-4a47-9850-5bede7e76bd5}, !- Handle
  1.13.0;                                 !- Version Identifier


! {"nombreProductoCorto": "CLIMALIT PLUS con COOL LITE XTREME 70/33 DIAMANT F2 6 (16 argon90%) 44.2 DIAMANT", "codigoEAN": "", "handle": "32cfff8a-19c2-49bb-85b2-f8e05e877239", "g": 0.33, "tV": 0.7, "u": 1.0, "nombreProducto": "CLIMALIT PLUS con COOL LITE XTREME 70/33 DIAMANT F2 6 (16 argon90%) 44.2 DIAMANT\nU:1.0 W/m2K - g:0.33 - Tv: 0.70"}
OS:WindowMaterial:SimpleGlazingSystem,
  {32cfff8a-19c2-49bb-85b2-f8e05e877239}, !- Handle
  CLIMALIT PLUS con COOL LITE XTREME 70/33 DIAMANT F2 6 (16 argon90%) 44.2 DIAMANT, !- Name
  1.0,                                    !- U-Factor {W/m2-K}
  0.33,                                    !- Solar Heat Gain Coefficient
  0.7;                                    !- Visible Transmittance     
  
  
OS:Construction,
  {e99da072-fb35-4227-bf63-8115fd03d50a}, !- Handle
  CLIMALIT PLUS con COOL LITE XTREME 70/33 DIAMANT F2 6 (16 argon90%) 44.2 DIAMANT,                         !- Name
  ,                                       !- Surface Rendering Name
  {32cfff8a-19c2-49bb-85b2-f8e05e877239}; !- Layer 1  

