
OS:Version,
  {b0925bda-1e7a-4107-8b62-9c1b5f4579c7}, ! Handle
  0.9.3;                                  ! Version Identifier

OS:Construction,
  {38c6ad78-ba7e-4a6a-ad2f-fc6738b7a310}, ! Handle
  90.1-2007 Res 6B Ext Slab Unheated - 8in Slab without Carpet, ! Name
  ,                                       ! Surface Rendering Name
  {ff0d8e8b-6b48-4fdd-90f3-91a6927b9b6e}; ! Layer 1

OS:Material,
  {ff0d8e8b-6b48-4fdd-90f3-91a6927b9b6e}, ! Handle
  MAT-CC05 8 HW CONCRETE,                 ! Name
  Rough,                                  ! Roughness
  0.20321,                                ! Thickness {m}
  1.311,                                  ! Conductivity {W/m-K}
  2240,                                   ! Density {kg/m3}
  836.8,                                  ! Specific Heat {J/kg-K}
  0.9,                                    ! Thermal Absorptance
  0.7,                                    ! Solar Absorptance
  0.7;                                    ! Visible Absorptance

OS:ComponentCost:LineItem,
  {76492b90-b777-4b06-99dd-5fa729a0c860}, ! Handle
  90.1-2007 Res 6B Ext Slab Unheated - 8in Slab without Carpet, ! Name
  ,                                       ! Type
  Construction,                           ! Line Item Type
  90.1-2007 Res 6B Ext Slab Unheated - 8in Slab without Carpet, ! Item Name
  ,                                       ! Object End Use Key
  ,                                       ! Quantity {dimensionless}
  45.52,                                  ! Material Cost {$}
  CostPerArea;                            ! Material Cost Units

OS:ComponentData,
  {16107a81-1a98-40cd-afe7-30cd09f7b078}, ! Handle
  Component Data 1,                       ! Name
  {a83fe50b-6a57-4fae-9e8d-a14bb0274976}, ! UUID
  {013a68e4-7ba0-419b-82c5-cfe62ebca1fd}, ! Version UUID
  1363981865,                             ! Creation Timestamp
  1363981865,                             ! Version Timestamp
  {38c6ad78-ba7e-4a6a-ad2f-fc6738b7a310}, ! Name of Object 1
  {ff0d8e8b-6b48-4fdd-90f3-91a6927b9b6e}, ! Name of Object 2
  {76492b90-b777-4b06-99dd-5fa729a0c860}; ! Name of Object 3

