
OS:Version,
  {592fd7be-88e6-4c49-85a7-50f10520a452}, ! Handle
  0.9.3;                                  ! Version Identifier

OS:Construction,
  {a35fc9f1-4451-497b-9275-695dc7a2561d}, ! Handle
  90.1-2001 Res B23 Ext Slab Unheated - 4in Slab with Carpet, ! Name
  ,                                       ! Surface Rendering Name
  {360dc965-2419-4eca-a8bc-d2bea7e1ed35}, ! Layer 1
  {c030ec89-6d27-4dc8-8848-805720d9c357}; ! Layer 2

OS:Material,
  {360dc965-2419-4eca-a8bc-d2bea7e1ed35}, ! Handle
  MAT-CC05 4 HW CONCRETE,                 ! Name
  Rough,                                  ! Roughness
  0.1016,                                 ! Thickness {m}
  1.311,                                  ! Conductivity {W/m-K}
  2240,                                   ! Density {kg/m3}
  836.8,                                  ! Specific Heat {J/kg-K}
  0.9,                                    ! Thermal Absorptance
  0.7,                                    ! Solar Absorptance
  0.7;                                    ! Visible Absorptance

OS:Material:NoMass,
  {c030ec89-6d27-4dc8-8848-805720d9c357}, ! Handle
  CP02 CARPET PAD,                        ! Name
  VeryRough,                              ! Roughness
  0.21648,                                ! Thermal Resistance {m2-K/W}
  0.9,                                    ! Thermal Absorptance
  0.7,                                    ! Solar Absorptance
  0.8;                                    ! Visible Absorptance

OS:ComponentCost:LineItem,
  {1308fb37-cce1-49fc-99f6-f2625ec22dfa}, ! Handle
  90.1-2001 Res B23 Ext Slab Unheated - 4in Slab with Carpet, ! Name
  ,                                       ! Type
  Construction,                           ! Line Item Type
  90.1-2001 Res B23 Ext Slab Unheated - 4in Slab with Carpet, ! Item Name
  ,                                       ! Object End Use Key
  ,                                       ! Quantity {dimensionless}
  45.52,                                  ! Material Cost {$}
  CostPerArea;                            ! Material Cost Units

