
OS:Version,
  {e38be6cc-ae9d-4b34-8de8-41b2830687d5}, ! Handle
  0.9.3;                                  ! Version Identifier

OS:ComponentCost:LineItem,
  {9abd38c6-105a-4f1b-a54e-eb02e16c2fb0}, ! Handle
  90.1-1999 Nonres B22 Ext Wall Metal Building, ! Name
  ,                                       ! Type
  Construction,                           ! Line Item Type
  90.1-1999 Nonres B22 Ext Wall Metal Building, ! Item Name
  ,                                       ! Object End Use Key
  ,                                       ! Quantity {dimensionless}
  107.698,                                ! Material Cost {$}
  CostPerArea;                            ! Material Cost Units

OS:Material,
  {9152915e-2fd6-46d9-a949-8294289be939}, ! Handle
  Wall Insulation [9],                    ! Name
  MediumRough,                            ! Roughness
  0.128642,                               ! Thickness {m}
  0.045,                                  ! Conductivity {W/m-K}
  265,                                    ! Density {kg/m3}
  836.8,                                  ! Specific Heat {J/kg-K}
  0.9,                                    ! Thermal Absorptance
  0.7,                                    ! Solar Absorptance
  0.7;                                    ! Visible Absorptance

OS:Material,
  {4036ed05-9f4f-41dd-8801-aa08d14d6d40}, ! Handle
  Metal Siding,                           ! Name
  Smooth,                                 ! Roughness
  0.0015,                                 ! Thickness {m}
  44.96,                                  ! Conductivity {W/m-K}
  7688.86,                                ! Density {kg/m3}
  410,                                    ! Specific Heat {J/kg-K}
  0.9,                                    ! Thermal Absorptance
  0.2,                                    ! Solar Absorptance
  0.2;                                    ! Visible Absorptance

OS:Construction,
  {5c5edc51-da43-45e4-9b48-440c5f2db8d2}, ! Handle
  90.1-1999 Nonres B22 Ext Wall Metal Building, ! Name
  ,                                       ! Surface Rendering Name
  {4036ed05-9f4f-41dd-8801-aa08d14d6d40}, ! Layer 1
  {9152915e-2fd6-46d9-a949-8294289be939}, ! Layer 2
  {ab49f2b1-eb10-43cf-9a06-4cbf4c9d9556}; ! Layer 3

OS:Material,
  {ab49f2b1-eb10-43cf-9a06-4cbf4c9d9556}, ! Handle
  1/2IN Gypsum,                           ! Name
  Smooth,                                 ! Roughness
  0.01271,                                ! Thickness {m}
  0.16,                                   ! Conductivity {W/m-K}
  784.9,                                  ! Density {kg/m3}
  830,                                    ! Specific Heat {J/kg-K}
  0.9,                                    ! Thermal Absorptance
  0.92,                                   ! Solar Absorptance
  0.92;                                   ! Visible Absorptance

