
OS:Version,
  {aa6ba160-00e6-4a16-8338-9cddb4cb27f2}, ! Handle
  0.9.3;                                  ! Version Identifier

OS:ComponentCost:LineItem,
  {fbe3a33b-42b6-45f4-8913-200d91137400}, ! Handle
  90.1-2004 Res 2A Exposed Floor Mass,    ! Name
  ,                                       ! Type
  Construction,                           ! Line Item Type
  90.1-2004 Res 2A Exposed Floor Mass,    ! Item Name
  ,                                       ! Object End Use Key
  ,                                       ! Quantity {dimensionless}
  47.214,                                 ! Material Cost {$}
  CostPerArea;                            ! Material Cost Units

OS:Material:NoMass,
  {5efedb09-aa19-48f6-adde-dc2793eec582}, ! Handle
  CP02 CARPET PAD,                        ! Name
  VeryRough,                              ! Roughness
  0.21648,                                ! Thermal Resistance {m2-K/W}
  0.9,                                    ! Thermal Absorptance
  0.7,                                    ! Solar Absorptance
  0.8;                                    ! Visible Absorptance

OS:Material,
  {defb37d3-f659-4f97-bdb4-a5b8ea311136}, ! Handle
  Floor Insulation [1],                   ! Name
  MediumRough,                            ! Roughness
  0.0463846,                              ! Thickness {m}
  0.045,                                  ! Conductivity {W/m-K}
  265,                                    ! Density {kg/m3}
  836.8,                                  ! Specific Heat {J/kg-K}
  0.9,                                    ! Thermal Absorptance
  0.7,                                    ! Solar Absorptance
  0.7;                                    ! Visible Absorptance

OS:Material,
  {fd50845b-f395-41e2-bf13-d543e7c6b55a}, ! Handle
  MAT-CC05 8 HW CONCRETE,                 ! Name
  Rough,                                  ! Roughness
  0.20321,                                ! Thickness {m}
  1.311,                                  ! Conductivity {W/m-K}
  2240,                                   ! Density {kg/m3}
  836.8,                                  ! Specific Heat {J/kg-K}
  0.9,                                    ! Thermal Absorptance
  0.7,                                    ! Solar Absorptance
  0.7;                                    ! Visible Absorptance

OS:Construction,
  {c0835252-3621-4ba5-b0fb-565d8dbee1c5}, ! Handle
  90.1-2004 Res 2A Exposed Floor Mass,    ! Name
  ,                                       ! Surface Rendering Name
  {defb37d3-f659-4f97-bdb4-a5b8ea311136}, ! Layer 1
  {fd50845b-f395-41e2-bf13-d543e7c6b55a}, ! Layer 2
  {5efedb09-aa19-48f6-adde-dc2793eec582}; ! Layer 3

