
OS:Version,
  {480db375-6c0d-48a8-8e37-e19af4f3c65e}, ! Handle
  0.9.3;                                  ! Version Identifier

OS:Construction,
  {b2ea9358-14d1-4184-8587-ad2c517e2a8a}, ! Handle
  90.1-2004 Res 2A Exposed Floor Mass,    ! Name
  ,                                       ! Surface Rendering Name
  {ee403baa-ea0c-4609-99f1-122d26abd4d6}, ! Layer 1
  {c203711d-c6ba-4946-ba7f-e8de6f2cbacf}, ! Layer 2
  {71dd5788-07b8-4048-9cd7-9e02923dbc6e}; ! Layer 3

OS:Material,
  {ee403baa-ea0c-4609-99f1-122d26abd4d6}, ! Handle
  Floor Insulation [1],                   ! Name
  MediumRough,                            ! Roughness
  0.0463846,                              ! Thickness {m}
  0.045,                                  ! Conductivity {W/m-K}
  265,                                    ! Density {kg/m3}
  836.8,                                  ! Specific Heat {J/kg-K}
  0.9,                                    ! Thermal Absorptance
  0.7,                                    ! Solar Absorptance
  0.7;                                    ! Visible Absorptance

OS:Material,
  {c203711d-c6ba-4946-ba7f-e8de6f2cbacf}, ! Handle
  MAT-CC05 8 HW CONCRETE,                 ! Name
  Rough,                                  ! Roughness
  0.20321,                                ! Thickness {m}
  1.311,                                  ! Conductivity {W/m-K}
  2240,                                   ! Density {kg/m3}
  836.8,                                  ! Specific Heat {J/kg-K}
  0.9,                                    ! Thermal Absorptance
  0.7,                                    ! Solar Absorptance
  0.7;                                    ! Visible Absorptance

OS:Material:NoMass,
  {71dd5788-07b8-4048-9cd7-9e02923dbc6e}, ! Handle
  CP02 CARPET PAD,                        ! Name
  VeryRough,                              ! Roughness
  0.21648,                                ! Thermal Resistance {m2-K/W}
  0.9,                                    ! Thermal Absorptance
  0.7,                                    ! Solar Absorptance
  0.8;                                    ! Visible Absorptance

OS:ComponentCost:LineItem,
  {50e617d2-828c-44d7-8905-51fa73812da4}, ! Handle
  90.1-2004 Res 2A Exposed Floor Mass,    ! Name
  ,                                       ! Type
  Construction,                           ! Line Item Type
  90.1-2004 Res 2A Exposed Floor Mass,    ! Item Name
  ,                                       ! Object End Use Key
  ,                                       ! Quantity {dimensionless}
  47.214,                                 ! Material Cost {$}
  CostPerArea;                            ! Material Cost Units

OS:ComponentData,
  {c5f00834-74d5-49b8-9186-5f5e37ba0b90}, ! Handle
  Component Data 1,                       ! Name
  {310a94b4-0bd5-49ad-a618-427e3f2b691c}, ! UUID
  {cbebea1a-183b-4c3a-b4fc-fa6ebe879181}, ! Version UUID
  1363981719,                             ! Creation Timestamp
  1363981719,                             ! Version Timestamp
  {b2ea9358-14d1-4184-8587-ad2c517e2a8a}, ! Name of Object 1
  {ee403baa-ea0c-4609-99f1-122d26abd4d6}, ! Name of Object 2
  {c203711d-c6ba-4946-ba7f-e8de6f2cbacf}, ! Name of Object 3
  {71dd5788-07b8-4048-9cd7-9e02923dbc6e}, ! Name of Object 4
  {50e617d2-828c-44d7-8905-51fa73812da4}; ! Name of Object 5

