
OS:Version,
  {495c4327-4ce1-40ff-97e9-380b4bceb431}, ! Handle
  0.9.3;                                  ! Version Identifier

OS:Construction,
  {e9193b7f-4fc1-40c7-882e-a9576d4aff1e}, ! Handle
  Title 24-2008 Nonres 3 Int Wall,        ! Name
  ,                                       ! Surface Rendering Name
  {8150aec8-2cd4-405f-a9ef-6f1555891702}, ! Layer 1
  {8150aec8-2cd4-405f-a9ef-6f1555891702}; ! Layer 2

OS:Material,
  {8150aec8-2cd4-405f-a9ef-6f1555891702}, ! Handle
  GP01 1/2 GYPSUM,                        ! Name
  Smooth,                                 ! Roughness
  0.01271,                                ! Thickness {m}
  0.16,                                   ! Conductivity {W/m-K}
  800,                                    ! Density {kg/m3}
  1090,                                   ! Specific Heat {J/kg-K}
  0.9,                                    ! Thermal Absorptance
  0.7,                                    ! Solar Absorptance
  0.5;                                    ! Visible Absorptance

OS:ComponentCost:LineItem,
  {e1d629f1-bd28-40fe-9c63-3682d7a12c77}, ! Handle
  Title 24-2008 Nonres 3 Int Wall,        ! Name
  ,                                       ! Type
  Construction,                           ! Line Item Type
  Title 24-2008 Nonres 3 Int Wall,        ! Item Name
  ,                                       ! Object End Use Key
  ,                                       ! Quantity {dimensionless}
  0,                                      ! Material Cost {$}
  CostPerArea;                            ! Material Cost Units

OS:Material,
  {b64e7061-cd7a-4b3b-87b2-decbbc7c1028}, ! Handle
  GP01 1/2 GYPSUM 1,                      ! Name
  Smooth,                                 ! Roughness
  0.01271,                                ! Thickness {m}
  0.16,                                   ! Conductivity {W/m-K}
  800,                                    ! Density {kg/m3}
  1090,                                   ! Specific Heat {J/kg-K}
  0.9,                                    ! Thermal Absorptance
  0.7,                                    ! Solar Absorptance
  0.5;                                    ! Visible Absorptance

