
OS:Version,
  {4a615787-37d8-4337-ba89-da0befaba406}, ! Handle
  0.9.3;                                  ! Version Identifier

OS:ComponentCost:LineItem,
  {0fbbecb1-e975-477d-bfd1-c4304e837d49}, ! Handle
  90.1 Windows Window Fixed 2670 Vnl-ClrSue-Ins-ClrSue, ! Name
  ,                                       ! Type
  Construction,                           ! Line Item Type
  90.1 Windows Window Fixed 2670 Vnl-ClrSue-Ins-ClrSue, ! Item Name
  ,                                       ! Object End Use Key
  ,                                       ! Quantity {dimensionless}
  0,                                      ! Material Cost {$}
  CostPerArea;                            ! Material Cost Units

OS:Construction,
  {c9f7116e-de12-4527-bc02-fb7f96c1d033}, ! Handle
  90.1 Windows Window Fixed 2670 Vnl-ClrSue-Ins-ClrSue, ! Name
  ,                                       ! Surface Rendering Name
  {260849d3-e35b-4b9b-8809-a25bce72a515}; ! Layer 1

OS:WindowMaterial:Glazing,
  {260849d3-e35b-4b9b-8809-a25bce72a515}, ! Handle
  Theoretical Glass [622],                ! Name
  SpectralAverage,                        ! Optical Data Type
  ,                                       ! Window Glass Spectral Data Set Name
  0.003,                                  ! Thickness {m}
  0.31679,                                ! Solar Transmittance at Normal Incidence
  0.63321,                                ! Front Side Solar Reflectance at Normal Incidence
  0.63321,                                ! Back Side Solar Reflectance at Normal Incidence
  0.519963,                               ! Visible Transmittance at Normal Incidence
  0.430037,                               ! Front Side Visible Reflectance at Normal Incidence
  0.430037,                               ! Back Side Visible Reflectance at Normal Incidence
  0,                                      ! Infrared Transmittance at Normal Incidence
  0.9,                                    ! Front Side Infrared Hemispherical Emissivity
  0.9,                                    ! Back Side Infrared Hemispherical Emissivity
  0.00743607;                             ! Conductivity {W/m-K}

