
OS:Version,
  {aee9ce50-1233-4766-9bcf-e7c7de59b777}, ! Handle
  0.9.3;                                  ! Version Identifier

OS:Material,
  {d45d6d2f-169d-48a9-8ca2-7ac0725c0643}, ! Handle
  MAT-CC05 4 HW CONCRETE,                 ! Name
  Rough,                                  ! Roughness
  0.1016,                                 ! Thickness {m}
  1.311,                                  ! Conductivity {W/m-K}
  2240,                                   ! Density {kg/m3}
  836.8,                                  ! Specific Heat {J/kg-K}
  0.9,                                    ! Thermal Absorptance
  0.7,                                    ! Solar Absorptance
  0.7;                                    ! Visible Absorptance

OS:Material:NoMass,
  {41544f96-cb03-425b-823a-7022eb9b277e}, ! Handle
  CP02 CARPET PAD,                        ! Name
  VeryRough,                              ! Roughness
  0.21648,                                ! Thermal Resistance {m2-K/W}
  0.9,                                    ! Thermal Absorptance
  0.7,                                    ! Solar Absorptance
  0.8;                                    ! Visible Absorptance

OS:Construction,
  {3216f46f-bfc2-4ee3-a0d9-d532e4ffb5b5}, ! Handle
  Title 24-2008 Nonres 15 Ext Slab Unheated - 4in Slab with Carpet, ! Name
  ,                                       ! Surface Rendering Name
  {d45d6d2f-169d-48a9-8ca2-7ac0725c0643}, ! Layer 1
  {41544f96-cb03-425b-823a-7022eb9b277e}; ! Layer 2

OS:ComponentCost:LineItem,
  {7c00277d-6934-4b40-be53-d61270305951}, ! Handle
  Title 24-2008 Nonres 15 Ext Slab Unheated - 4in Slab with Carpet, ! Name
  ,                                       ! Type
  Construction,                           ! Line Item Type
  Title 24-2008 Nonres 15 Ext Slab Unheated - 4in Slab with Carpet, ! Item Name
  ,                                       ! Object End Use Key
  ,                                       ! Quantity {dimensionless}
  45.52,                                  ! Material Cost {$}
  CostPerArea;                            ! Material Cost Units

