
OS:Version,
  {1cdbadf8-9a2e-4632-b788-814e13caf65e}, ! Handle
  0.9.3;                                  ! Version Identifier

OS:Construction,
  {0bca0d3b-6574-4977-b68b-17c0ea7d7da3}, ! Handle
  189.1-2009 Res 7A Ext Wall Wood-Framed and Other, ! Name
  ,                                       ! Surface Rendering Name
  {86eadb8b-984f-4758-8eaf-09ffe91a55fd}, ! Layer 1
  {09833995-193f-4761-925d-966887aa6753}, ! Layer 2
  {4a241422-4769-47f1-a6c2-858ae61a04a9}; ! Layer 3

OS:Material,
  {86eadb8b-984f-4758-8eaf-09ffe91a55fd}, ! Handle
  Wood Siding,                            ! Name
  MediumSmooth,                           ! Roughness
  0.01,                                   ! Thickness {m}
  0.11,                                   ! Conductivity {W/m-K}
  544.62,                                 ! Density {kg/m3}
  1210,                                   ! Specific Heat {J/kg-K}
  0.9,                                    ! Thermal Absorptance
  0.78,                                   ! Solar Absorptance
  0.78;                                   ! Visible Absorptance

OS:Material,
  {09833995-193f-4761-925d-966887aa6753}, ! Handle
  Wall Insulation [43],                   ! Name
  MediumRough,                            ! Roughness
  0.15833,                                ! Thickness {m}
  0.045,                                  ! Conductivity {W/m-K}
  265,                                    ! Density {kg/m3}
  836.8,                                  ! Specific Heat {J/kg-K}
  0.9,                                    ! Thermal Absorptance
  0.7,                                    ! Solar Absorptance
  0.7;                                    ! Visible Absorptance

OS:Material,
  {4a241422-4769-47f1-a6c2-858ae61a04a9}, ! Handle
  1/2IN Gypsum,                           ! Name
  Smooth,                                 ! Roughness
  0.01271,                                ! Thickness {m}
  0.16,                                   ! Conductivity {W/m-K}
  784.9,                                  ! Density {kg/m3}
  830,                                    ! Specific Heat {J/kg-K}
  0.9,                                    ! Thermal Absorptance
  0.92,                                   ! Solar Absorptance
  0.92;                                   ! Visible Absorptance

OS:ComponentCost:LineItem,
  {016a4f01-7f15-430d-ba42-d28d61946891}, ! Handle
  189.1-2009 Res 7A Ext Wall Wood-Framed and Other, ! Name
  ,                                       ! Type
  Construction,                           ! Line Item Type
  189.1-2009 Res 7A Ext Wall Wood-Framed and Other, ! Item Name
  ,                                       ! Object End Use Key
  ,                                       ! Quantity {dimensionless}
  82.923,                                 ! Material Cost {$}
  CostPerArea;                            ! Material Cost Units

OS:ComponentData,
  {640b2b2c-1791-4a81-a585-5a180d040993}, ! Handle
  Component Data 1,                       ! Name
  {4e1aab68-b68d-4caf-93d9-0b44317eeae7}, ! UUID
  {794f28c2-0be0-4490-82b9-26ea1b393b3c}, ! Version UUID
  1363980984,                             ! Creation Timestamp
  1363980984,                             ! Version Timestamp
  {0bca0d3b-6574-4977-b68b-17c0ea7d7da3}, ! Name of Object 1
  {86eadb8b-984f-4758-8eaf-09ffe91a55fd}, ! Name of Object 2
  {09833995-193f-4761-925d-966887aa6753}, ! Name of Object 3
  {4a241422-4769-47f1-a6c2-858ae61a04a9}, ! Name of Object 4
  {016a4f01-7f15-430d-ba42-d28d61946891}; ! Name of Object 5

