
OS:Version,
  {42113d33-b180-4e08-9cf7-2e0c5c28312e}, ! Handle
  0.9.3;                                  ! Version Identifier

OS:Material,
  {80bc29bc-a856-4f74-a3a7-b869b21bd665}, ! Handle
  1/2IN Gypsum,                           ! Name
  Smooth,                                 ! Roughness
  0.01271,                                ! Thickness {m}
  0.16,                                   ! Conductivity {W/m-K}
  784.9,                                  ! Density {kg/m3}
  830,                                    ! Specific Heat {J/kg-K}
  0.9,                                    ! Thermal Absorptance
  0.92,                                   ! Solar Absorptance
  0.92;                                   ! Visible Absorptance

OS:ComponentCost:LineItem,
  {ebf136d5-f345-4fb2-89a2-5fef8882d1b7}, ! Handle
  189.1-2009 Res 7A Ext Wall Wood-Framed and Other, ! Name
  ,                                       ! Type
  Construction,                           ! Line Item Type
  189.1-2009 Res 7A Ext Wall Wood-Framed and Other, ! Item Name
  ,                                       ! Object End Use Key
  ,                                       ! Quantity {dimensionless}
  82.923,                                 ! Material Cost {$}
  CostPerArea;                            ! Material Cost Units

OS:Construction,
  {b50d2b0c-b856-420f-a210-bdc3ea1b5992}, ! Handle
  189.1-2009 Res 7A Ext Wall Wood-Framed and Other, ! Name
  ,                                       ! Surface Rendering Name
  {0557b414-05ab-48c0-8193-6509cd8bccb4}, ! Layer 1
  {8e6424ac-63b7-4ebd-af71-d88eaa382caa}, ! Layer 2
  {80bc29bc-a856-4f74-a3a7-b869b21bd665}; ! Layer 3

OS:Material,
  {0557b414-05ab-48c0-8193-6509cd8bccb4}, ! Handle
  Wood Siding,                            ! Name
  MediumSmooth,                           ! Roughness
  0.01,                                   ! Thickness {m}
  0.11,                                   ! Conductivity {W/m-K}
  544.62,                                 ! Density {kg/m3}
  1210,                                   ! Specific Heat {J/kg-K}
  0.9,                                    ! Thermal Absorptance
  0.78,                                   ! Solar Absorptance
  0.78;                                   ! Visible Absorptance

OS:Material,
  {8e6424ac-63b7-4ebd-af71-d88eaa382caa}, ! Handle
  Wall Insulation [43],                   ! Name
  MediumRough,                            ! Roughness
  0.15833,                                ! Thickness {m}
  0.045,                                  ! Conductivity {W/m-K}
  265,                                    ! Density {kg/m3}
  836.8,                                  ! Specific Heat {J/kg-K}
  0.9,                                    ! Thermal Absorptance
  0.7,                                    ! Solar Absorptance
  0.7;                                    ! Visible Absorptance

