
OS:Version,
  {551b2d9a-0d34-40a0-ae6e-b3d7f5219356}, !- Handle
  1.1.0;                                  !- Version Identifier

OS:Construction,
  {86ae1c4b-6bae-494a-9eb5-cee6bf8ef0a2}, !- Handle
  Dbl Grey 6mm/6mm Air,                   !- Name
  ,                                       !- Surface Rendering Name
  {b2bcf26e-b843-4e0b-ae74-a5c2f9c7e4a7}, !- Layer 1
  {0c27e199-aa9a-4f86-880f-afd21416efd1}, !- Layer 2
  {1160073b-fe61-4168-b049-eee361838e88}; !- Layer 3

OS:WindowMaterial:Glazing,
  {b2bcf26e-b843-4e0b-ae74-a5c2f9c7e4a7}, !- Handle
  GREY 6MM,                               !- Name
  SpectralAverage,                        !- Optical Data Type
  ,                                       !- Window Glass Spectral Data Set Name
  0.006,                                  !- Thickness {m}
  0.455,                                  !- Solar Transmittance at Normal Incidence
  0.053,                                  !- Front Side Solar Reflectance at Normal Incidence
  0.053,                                  !- Back Side Solar Reflectance at Normal Incidence
  0.431,                                  !- Visible Transmittance at Normal Incidence
  0.052,                                  !- Front Side Visible Reflectance at Normal Incidence
  0.052,                                  !- Back Side Visible Reflectance at Normal Incidence
  0,                                      !- Infrared Transmittance at Normal Incidence
  0.84,                                   !- Front Side Infrared Hemispherical Emissivity
  0.84,                                   !- Back Side Infrared Hemispherical Emissivity
  0.9;                                    !- Conductivity {W/m-K}

OS:WindowMaterial:Gas,
  {0c27e199-aa9a-4f86-880f-afd21416efd1}, !- Handle
  AIR 6MM,                                !- Name
  Air,                                    !- Gas Type
  0.0063;                                 !- Thickness {m}

OS:WindowMaterial:Glazing,
  {1160073b-fe61-4168-b049-eee361838e88}, !- Handle
  CLEAR 6MM,                              !- Name
  SpectralAverage,                        !- Optical Data Type
  ,                                       !- Window Glass Spectral Data Set Name
  0.006,                                  !- Thickness {m}
  0.775,                                  !- Solar Transmittance at Normal Incidence
  0.071,                                  !- Front Side Solar Reflectance at Normal Incidence
  0.071,                                  !- Back Side Solar Reflectance at Normal Incidence
  0.881,                                  !- Visible Transmittance at Normal Incidence
  0.08,                                   !- Front Side Visible Reflectance at Normal Incidence
  0.08,                                   !- Back Side Visible Reflectance at Normal Incidence
  0,                                      !- Infrared Transmittance at Normal Incidence
  0.84,                                   !- Front Side Infrared Hemispherical Emissivity
  0.84,                                   !- Back Side Infrared Hemispherical Emissivity
  0.9;                                    !- Conductivity {W/m-K}

