
OS:Version,
  {72628e3a-d0fb-4818-bebd-f795135138cd}, ! Handle
  0.9.3;                                  ! Version Identifier

OS:Material,
  {d13a35f2-d89d-49b4-86a2-f34695ec45b4}, ! Handle
  Metal Roofing,                          ! Name
  MediumSmooth,                           ! Roughness
  0.001524,                               ! Thickness {m}
  45.006,                                 ! Conductivity {W/m-K}
  7680,                                   ! Density {kg/m3}
  418.4,                                  ! Specific Heat {J/kg-K}
  0.9,                                    ! Thermal Absorptance
  0.7,                                    ! Solar Absorptance
  0.3;                                    ! Visible Absorptance

OS:Material,
  {d0b5e7bb-bfb6-4737-825b-a82453d03370}, ! Handle
  Roof Insulation [1],                    ! Name
  MediumRough,                            ! Roughness
  0.123533,                               ! Thickness {m}
  0.049,                                  ! Conductivity {W/m-K}
  265,                                    ! Density {kg/m3}
  836.8,                                  ! Specific Heat {J/kg-K}
  0.9,                                    ! Thermal Absorptance
  0.7,                                    ! Solar Absorptance
  0.7;                                    ! Visible Absorptance

OS:ComponentCost:LineItem,
  {61123e11-65d0-4c3c-8238-f026631479c8}, ! Handle
  90.1-2001 Nonres B9 Roof Metal Building, ! Name
  ,                                       ! Type
  Construction,                           ! Line Item Type
  90.1-2001 Nonres B9 Roof Metal Building, ! Item Name
  ,                                       ! Object End Use Key
  ,                                       ! Quantity {dimensionless}
  38.206,                                 ! Material Cost {$}
  CostPerArea;                            ! Material Cost Units

OS:Construction,
  {185da0a7-17f2-47af-89a1-1cdc6a4e2b27}, ! Handle
  90.1-2001 Nonres B9 Roof Metal Building, ! Name
  ,                                       ! Surface Rendering Name
  {d13a35f2-d89d-49b4-86a2-f34695ec45b4}, ! Layer 1
  {d0b5e7bb-bfb6-4737-825b-a82453d03370}; ! Layer 2

