
OS:Version,
  {12c11489-0641-473a-918f-9347f71b2d89}, ! Handle
  0.9.3;                                  ! Version Identifier

OS:ComponentCost:LineItem,
  {e5cb7d27-44a6-49c4-89ad-5b05f88cc8b9}, ! Handle
  90.1-2004 Res 4B Ext Wall Steel-Framed, ! Name
  ,                                       ! Type
  Construction,                           ! Line Item Type
  90.1-2004 Res 4B Ext Wall Steel-Framed, ! Item Name
  ,                                       ! Object End Use Key
  ,                                       ! Quantity {dimensionless}
  94.657,                                 ! Material Cost {$}
  CostPerArea;                            ! Material Cost Units

OS:Material,
  {d2057aec-a9a5-496e-a73f-5f60b6b30e81}, ! Handle
  Wall Insulation [10],                   ! Name
  MediumRough,                            ! Roughness
  0.0971136,                              ! Thickness {m}
  0.045,                                  ! Conductivity {W/m-K}
  265,                                    ! Density {kg/m3}
  836.8,                                  ! Specific Heat {J/kg-K}
  0.9,                                    ! Thermal Absorptance
  0.7,                                    ! Solar Absorptance
  0.7;                                    ! Visible Absorptance

OS:Material:NoMass,
  {4659fc36-d263-48b8-9510-8aca26db052a}, ! Handle
  MAT-SHEATH,                             ! Name
  Rough,                                  ! Roughness
  0.36256,                                ! Thermal Resistance {m2-K/W}
  0.9,                                    ! Thermal Absorptance
  0.7,                                    ! Solar Absorptance
  0.7;                                    ! Visible Absorptance

OS:Material,
  {97b40519-aea9-4dce-85db-6a69ccca27ba}, ! Handle
  1/2IN Gypsum,                           ! Name
  Smooth,                                 ! Roughness
  0.01271,                                ! Thickness {m}
  0.16,                                   ! Conductivity {W/m-K}
  784.9,                                  ! Density {kg/m3}
  830,                                    ! Specific Heat {J/kg-K}
  0.9,                                    ! Thermal Absorptance
  0.92,                                   ! Solar Absorptance
  0.92;                                   ! Visible Absorptance

OS:Construction,
  {3e190cd0-b05e-4f57-a7cc-228760ddf16e}, ! Handle
  90.1-2004 Res 4B Ext Wall Steel-Framed, ! Name
  ,                                       ! Surface Rendering Name
  {4659fc36-d263-48b8-9510-8aca26db052a}, ! Layer 1
  {d2057aec-a9a5-496e-a73f-5f60b6b30e81}, ! Layer 2
  {97b40519-aea9-4dce-85db-6a69ccca27ba}; ! Layer 3

