
OS:Version,
  {1edfb406-2a0e-47ce-88aa-24c15139d703}, ! Handle
  0.9.3;                                  ! Version Identifier

OS:Construction,
  {b3a94a41-9349-4931-9923-47a2e58925c4}, ! Handle
  90.1-2004 Res 4B Ext Wall Steel-Framed, ! Name
  ,                                       ! Surface Rendering Name
  {0c7768ba-5330-46e3-bcb4-5b8e815f9e0b}, ! Layer 1
  {12d55ab0-c243-45c4-a190-3ce7ca6d537d}, ! Layer 2
  {e617f84b-0eb8-4368-8d69-055f49614036}; ! Layer 3

OS:Material:NoMass,
  {0c7768ba-5330-46e3-bcb4-5b8e815f9e0b}, ! Handle
  MAT-SHEATH,                             ! Name
  Rough,                                  ! Roughness
  0.36256,                                ! Thermal Resistance {m2-K/W}
  0.9,                                    ! Thermal Absorptance
  0.7,                                    ! Solar Absorptance
  0.7;                                    ! Visible Absorptance

OS:Material,
  {12d55ab0-c243-45c4-a190-3ce7ca6d537d}, ! Handle
  Wall Insulation [10],                   ! Name
  MediumRough,                            ! Roughness
  0.0971136,                              ! Thickness {m}
  0.045,                                  ! Conductivity {W/m-K}
  265,                                    ! Density {kg/m3}
  836.8,                                  ! Specific Heat {J/kg-K}
  0.9,                                    ! Thermal Absorptance
  0.7,                                    ! Solar Absorptance
  0.7;                                    ! Visible Absorptance

OS:Material,
  {e617f84b-0eb8-4368-8d69-055f49614036}, ! Handle
  1/2IN Gypsum,                           ! Name
  Smooth,                                 ! Roughness
  0.01271,                                ! Thickness {m}
  0.16,                                   ! Conductivity {W/m-K}
  784.9,                                  ! Density {kg/m3}
  830,                                    ! Specific Heat {J/kg-K}
  0.9,                                    ! Thermal Absorptance
  0.92,                                   ! Solar Absorptance
  0.92;                                   ! Visible Absorptance

OS:ComponentCost:LineItem,
  {b5dabdc5-a79e-4803-85ba-e8b072d2fc01}, ! Handle
  90.1-2004 Res 4B Ext Wall Steel-Framed, ! Name
  ,                                       ! Type
  Construction,                           ! Line Item Type
  90.1-2004 Res 4B Ext Wall Steel-Framed, ! Item Name
  ,                                       ! Object End Use Key
  ,                                       ! Quantity {dimensionless}
  94.657,                                 ! Material Cost {$}
  CostPerArea;                            ! Material Cost Units

OS:ComponentData,
  {1a036271-ffc3-4420-90a7-c1a5081f0789}, ! Handle
  Component Data 1,                       ! Name
  {cc55c6b1-1a71-4f92-a0bd-e1976bcf1610}, ! UUID
  {58ca34b8-637d-4e70-9f82-000b6b5b519b}, ! Version UUID
  1363981738,                             ! Creation Timestamp
  1363981738,                             ! Version Timestamp
  {b3a94a41-9349-4931-9923-47a2e58925c4}, ! Name of Object 1
  {0c7768ba-5330-46e3-bcb4-5b8e815f9e0b}, ! Name of Object 2
  {12d55ab0-c243-45c4-a190-3ce7ca6d537d}, ! Name of Object 3
  {e617f84b-0eb8-4368-8d69-055f49614036}, ! Name of Object 4
  {b5dabdc5-a79e-4803-85ba-e8b072d2fc01}; ! Name of Object 5

