
OS:Version,
  {d6528d8b-76a2-473a-8490-3e91ffdce2d5}, ! Handle
  0.9.3;                                  ! Version Identifier

OS:Material,
  {f2f2587b-f36d-459f-8a66-ac8d1d88b1bc}, ! Handle
  Wood Siding,                            ! Name
  MediumSmooth,                           ! Roughness
  0.01,                                   ! Thickness {m}
  0.11,                                   ! Conductivity {W/m-K}
  544.62,                                 ! Density {kg/m3}
  1210,                                   ! Specific Heat {J/kg-K}
  0.9,                                    ! Thermal Absorptance
  0.78,                                   ! Solar Absorptance
  0.78;                                   ! Visible Absorptance

OS:Material,
  {31777f20-cdab-4d21-a293-ee50dc71ea24}, ! Handle
  Wall Insulation [13],                   ! Name
  MediumRough,                            ! Roughness
  0.140713,                               ! Thickness {m}
  0.045,                                  ! Conductivity {W/m-K}
  265,                                    ! Density {kg/m3}
  836.8,                                  ! Specific Heat {J/kg-K}
  0.9,                                    ! Thermal Absorptance
  0.7,                                    ! Solar Absorptance
  0.7;                                    ! Visible Absorptance

OS:Construction,
  {1e55c906-4508-400b-8d35-d8a74fe0d246}, ! Handle
  90.1-1999 Res B25 Ext Wall Wood-Framed and Other, ! Name
  ,                                       ! Surface Rendering Name
  {f2f2587b-f36d-459f-8a66-ac8d1d88b1bc}, ! Layer 1
  {31777f20-cdab-4d21-a293-ee50dc71ea24}, ! Layer 2
  {8343e9df-2e08-4735-8236-792a41e04c82}; ! Layer 3

OS:Material,
  {8343e9df-2e08-4735-8236-792a41e04c82}, ! Handle
  1/2IN Gypsum,                           ! Name
  Smooth,                                 ! Roughness
  0.01271,                                ! Thickness {m}
  0.16,                                   ! Conductivity {W/m-K}
  784.9,                                  ! Density {kg/m3}
  830,                                    ! Specific Heat {J/kg-K}
  0.9,                                    ! Thermal Absorptance
  0.92,                                   ! Solar Absorptance
  0.92;                                   ! Visible Absorptance

OS:ComponentCost:LineItem,
  {da1bd7d4-9d17-4842-a830-178c8fed74b2}, ! Handle
  90.1-1999 Res B25 Ext Wall Wood-Framed and Other, ! Name
  ,                                       ! Type
  Construction,                           ! Line Item Type
  90.1-1999 Res B25 Ext Wall Wood-Framed and Other, ! Item Name
  ,                                       ! Object End Use Key
  ,                                       ! Quantity {dimensionless}
  80.638,                                 ! Material Cost {$}
  CostPerArea;                            ! Material Cost Units

