
OS:Version,
  {347bef1b-fbb1-4c36-8590-423e6c77dd84}, ! Handle
  0.9.3;                                  ! Version Identifier

OS:Construction,
  {fb71e3d5-fc91-4f44-8410-a1f2eeb59ede}, ! Handle
  90.1-1999 Res B25 Ext Wall Wood-Framed and Other, ! Name
  ,                                       ! Surface Rendering Name
  {1e08511b-8b77-4b3d-b509-5b40659681f4}, ! Layer 1
  {61df013c-6f45-4ff0-a2cc-ad9117f12120}, ! Layer 2
  {46b80ecb-b25b-4c1d-b1fb-2c3bd0576920}; ! Layer 3

OS:Material,
  {1e08511b-8b77-4b3d-b509-5b40659681f4}, ! Handle
  Wood Siding,                            ! Name
  MediumSmooth,                           ! Roughness
  0.01,                                   ! Thickness {m}
  0.11,                                   ! Conductivity {W/m-K}
  544.62,                                 ! Density {kg/m3}
  1210,                                   ! Specific Heat {J/kg-K}
  0.9,                                    ! Thermal Absorptance
  0.78,                                   ! Solar Absorptance
  0.78;                                   ! Visible Absorptance

OS:Material,
  {61df013c-6f45-4ff0-a2cc-ad9117f12120}, ! Handle
  Wall Insulation [13],                   ! Name
  MediumRough,                            ! Roughness
  0.140713,                               ! Thickness {m}
  0.045,                                  ! Conductivity {W/m-K}
  265,                                    ! Density {kg/m3}
  836.8,                                  ! Specific Heat {J/kg-K}
  0.9,                                    ! Thermal Absorptance
  0.7,                                    ! Solar Absorptance
  0.7;                                    ! Visible Absorptance

OS:Material,
  {46b80ecb-b25b-4c1d-b1fb-2c3bd0576920}, ! Handle
  1/2IN Gypsum,                           ! Name
  Smooth,                                 ! Roughness
  0.01271,                                ! Thickness {m}
  0.16,                                   ! Conductivity {W/m-K}
  784.9,                                  ! Density {kg/m3}
  830,                                    ! Specific Heat {J/kg-K}
  0.9,                                    ! Thermal Absorptance
  0.92,                                   ! Solar Absorptance
  0.92;                                   ! Visible Absorptance

OS:ComponentCost:LineItem,
  {75b49c38-2580-4a26-81fc-f49f055127a5}, ! Handle
  90.1-1999 Res B25 Ext Wall Wood-Framed and Other, ! Name
  ,                                       ! Type
  Construction,                           ! Line Item Type
  90.1-1999 Res B25 Ext Wall Wood-Framed and Other, ! Item Name
  ,                                       ! Object End Use Key
  ,                                       ! Quantity {dimensionless}
  80.638,                                 ! Material Cost {$}
  CostPerArea;                            ! Material Cost Units

OS:ComponentData,
  {46178e33-e685-4bd2-a6a5-929d39c33790}, ! Handle
  Component Data 1,                       ! Name
  {3bd089b0-0e23-4c82-ad58-75127bf101c3}, ! UUID
  {0d7e22cc-a116-4ec3-bf0b-980c53990bed}, ! Version UUID
  1363981275,                             ! Creation Timestamp
  1363981275,                             ! Version Timestamp
  {fb71e3d5-fc91-4f44-8410-a1f2eeb59ede}, ! Name of Object 1
  {1e08511b-8b77-4b3d-b509-5b40659681f4}, ! Name of Object 2
  {61df013c-6f45-4ff0-a2cc-ad9117f12120}, ! Name of Object 3
  {46b80ecb-b25b-4c1d-b1fb-2c3bd0576920}, ! Name of Object 4
  {75b49c38-2580-4a26-81fc-f49f055127a5}; ! Name of Object 5

