
OS:Version,
  {288f744a-2dd8-4cb1-a0ca-a951455ba498}, ! Handle
  0.9.3;                                  ! Version Identifier

OS:Construction,
  {f26a4a57-39f9-43e7-9e03-a7a485e0523b}, ! Handle
  90.1 Constructions Ext Wall Steel-Framed R-13.0 + R-21.9 ci, ! Name
  ,                                       ! Surface Rendering Name
  {459743c1-9aec-4c4a-bebf-353c9d738719}, ! Layer 1
  {268e2e1d-8d89-41b5-a3ef-31e79f4d251f}, ! Layer 2
  {071c7bdc-ace3-4ca9-9aa4-972243cc4819}; ! Layer 3

OS:Material:NoMass,
  {459743c1-9aec-4c4a-bebf-353c9d738719}, ! Handle
  MAT-SHEATH,                             ! Name
  Rough,                                  ! Roughness
  0.36256,                                ! Thermal Resistance {m2-K/W}
  0.9,                                    ! Thermal Absorptance
  0.7,                                    ! Solar Absorptance
  0.7;                                    ! Visible Absorptance

OS:Material,
  {268e2e1d-8d89-41b5-a3ef-31e79f4d251f}, ! Handle
  Wall Insulation [112],                  ! Name
  MediumRough,                            ! Roughness
  0.210547,                               ! Thickness {m}
  0.045,                                  ! Conductivity {W/m-K}
  265,                                    ! Density {kg/m3}
  836.8,                                  ! Specific Heat {J/kg-K}
  0.9,                                    ! Thermal Absorptance
  0.7,                                    ! Solar Absorptance
  0.7;                                    ! Visible Absorptance

OS:Material,
  {071c7bdc-ace3-4ca9-9aa4-972243cc4819}, ! Handle
  1/2IN Gypsum,                           ! Name
  Smooth,                                 ! Roughness
  0.01271,                                ! Thickness {m}
  0.16,                                   ! Conductivity {W/m-K}
  784.9,                                  ! Density {kg/m3}
  830,                                    ! Specific Heat {J/kg-K}
  0.9,                                    ! Thermal Absorptance
  0.92,                                   ! Solar Absorptance
  0.92;                                   ! Visible Absorptance

OS:ComponentCost:LineItem,
  {3a7ccd6e-72b4-4d1a-8ab0-fdbddd2b61d5}, ! Handle
  90.1 Constructions Ext Wall Steel-Framed R-13.0 + R-21.9 ci, ! Name
  ,                                       ! Type
  Construction,                           ! Line Item Type
  90.1 Constructions Ext Wall Steel-Framed R-13.0 + R-21.9 ci, ! Item Name
  ,                                       ! Object End Use Key
  ,                                       ! Quantity {dimensionless}
  105.975,                                ! Material Cost {$}
  CostPerArea;                            ! Material Cost Units

OS:ComponentData,
  {16d43673-db68-4094-abfe-5cabf0eb0ee6}, ! Handle
  Component Data 1,                       ! Name
  {5134e907-c94c-45f1-be39-b61e13d66510}, ! UUID
  {d36658fb-d5e2-4066-9f86-4ea0f294c10a}, ! Version UUID
  1363980995,                             ! Creation Timestamp
  1363980995,                             ! Version Timestamp
  {f26a4a57-39f9-43e7-9e03-a7a485e0523b}, ! Name of Object 1
  {459743c1-9aec-4c4a-bebf-353c9d738719}, ! Name of Object 2
  {268e2e1d-8d89-41b5-a3ef-31e79f4d251f}, ! Name of Object 3
  {071c7bdc-ace3-4ca9-9aa4-972243cc4819}, ! Name of Object 4
  {3a7ccd6e-72b4-4d1a-8ab0-fdbddd2b61d5}; ! Name of Object 5

