
OS:Version,
  {0d0bdba5-e0e1-4557-b7d5-0513e94cb31d}, ! Handle
  0.9.3;                                  ! Version Identifier

OS:Construction,
  {51558df0-52d8-4834-956a-e4b6eacc9086}, ! Handle
  90.1 Constructions Ext Wall Steel-Framed R-13.0 + R-21.9 ci, ! Name
  ,                                       ! Surface Rendering Name
  {e8794c9e-ffca-42e5-be8d-de7b1cdc0495}, ! Layer 1
  {6f56ff65-947e-4d25-9930-628677d32402}, ! Layer 2
  {4508475b-1c48-48fd-b6c8-7918ff17844f}; ! Layer 3

OS:Material:NoMass,
  {e8794c9e-ffca-42e5-be8d-de7b1cdc0495}, ! Handle
  MAT-SHEATH,                             ! Name
  Rough,                                  ! Roughness
  0.36256,                                ! Thermal Resistance {m2-K/W}
  0.9,                                    ! Thermal Absorptance
  0.7,                                    ! Solar Absorptance
  0.7;                                    ! Visible Absorptance

OS:Material,
  {6f56ff65-947e-4d25-9930-628677d32402}, ! Handle
  Wall Insulation [112],                  ! Name
  MediumRough,                            ! Roughness
  0.210547,                               ! Thickness {m}
  0.045,                                  ! Conductivity {W/m-K}
  265,                                    ! Density {kg/m3}
  836.8,                                  ! Specific Heat {J/kg-K}
  0.9,                                    ! Thermal Absorptance
  0.7,                                    ! Solar Absorptance
  0.7;                                    ! Visible Absorptance

OS:Material,
  {4508475b-1c48-48fd-b6c8-7918ff17844f}, ! Handle
  1/2IN Gypsum,                           ! Name
  Smooth,                                 ! Roughness
  0.01271,                                ! Thickness {m}
  0.16,                                   ! Conductivity {W/m-K}
  784.9,                                  ! Density {kg/m3}
  830,                                    ! Specific Heat {J/kg-K}
  0.9,                                    ! Thermal Absorptance
  0.92,                                   ! Solar Absorptance
  0.92;                                   ! Visible Absorptance

OS:ComponentCost:LineItem,
  {e98154c1-fdfd-4336-8874-2c2aeb5db0e6}, ! Handle
  90.1 Constructions Ext Wall Steel-Framed R-13.0 + R-21.9 ci, ! Name
  ,                                       ! Type
  Construction,                           ! Line Item Type
  90.1 Constructions Ext Wall Steel-Framed R-13.0 + R-21.9 ci, ! Item Name
  ,                                       ! Object End Use Key
  ,                                       ! Quantity {dimensionless}
  105.975,                                ! Material Cost {$}
  CostPerArea;                            ! Material Cost Units

