
OS:Version,
  {71e318aa-4c20-4f5f-b218-9feaef805719}, ! Handle
  0.9.3;                                  ! Version Identifier

OS:Material,
  {41df9941-d00f-45c8-9c8b-5d7641311fda}, ! Handle
  1/2IN Gypsum,                           ! Name
  Smooth,                                 ! Roughness
  0.01271,                                ! Thickness {m}
  0.16,                                   ! Conductivity {W/m-K}
  784.9,                                  ! Density {kg/m3}
  830,                                    ! Specific Heat {J/kg-K}
  0.9,                                    ! Thermal Absorptance
  0.92,                                   ! Solar Absorptance
  0.92;                                   ! Visible Absorptance

OS:Material,
  {2112b0fb-eda8-4e52-9e5c-5a23ffedb414}, ! Handle
  Wall Insulation [159],                  ! Name
  MediumRough,                            ! Roughness
  0.0812,                                 ! Thickness {m}
  0.045,                                  ! Conductivity {W/m-K}
  265,                                    ! Density {kg/m3}
  836.8,                                  ! Specific Heat {J/kg-K}
  0.9,                                    ! Thermal Absorptance
  0.7,                                    ! Solar Absorptance
  0.7;                                    ! Visible Absorptance

OS:ComponentCost:LineItem,
  {ca6dcb16-8426-4334-aa54-b8754a12e47f}, ! Handle
  Title 24-2008 Nonres 10 Ext Wall Metal Building, ! Name
  ,                                       ! Type
  Construction,                           ! Line Item Type
  Title 24-2008 Nonres 10 Ext Wall Metal Building, ! Item Name
  ,                                       ! Object End Use Key
  ,                                       ! Quantity {dimensionless}
  184.211,                                ! Material Cost {$}
  CostPerArea;                            ! Material Cost Units

OS:Material,
  {39c8cd29-c244-4627-8ea7-83851edc684f}, ! Handle
  Metal Siding,                           ! Name
  Smooth,                                 ! Roughness
  0.0015,                                 ! Thickness {m}
  44.96,                                  ! Conductivity {W/m-K}
  7688.86,                                ! Density {kg/m3}
  410,                                    ! Specific Heat {J/kg-K}
  0.9,                                    ! Thermal Absorptance
  0.2,                                    ! Solar Absorptance
  0.2;                                    ! Visible Absorptance

OS:Construction,
  {1d167ff1-e0bf-4cbf-8929-ce087df1cc48}, ! Handle
  Title 24-2008 Nonres 10 Ext Wall Metal Building, ! Name
  ,                                       ! Surface Rendering Name
  {39c8cd29-c244-4627-8ea7-83851edc684f}, ! Layer 1
  {2112b0fb-eda8-4e52-9e5c-5a23ffedb414}, ! Layer 2
  {41df9941-d00f-45c8-9c8b-5d7641311fda}; ! Layer 3

