
OS:Version,
  {92a22bc8-29b3-4c84-8ee2-99432b699bed}, ! Handle
  0.9.3;                                  ! Version Identifier

OS:Construction,
  {6ea9a8db-0a95-45c8-b809-5b038c7bbe0c}, ! Handle
  90.1-2001 Res B6 Ext Slab Unheated - 8in Slab without Carpet, ! Name
  ,                                       ! Surface Rendering Name
  {6a214915-e1a6-45f3-a629-079fd20bdc86}; ! Layer 1

OS:Material,
  {6a214915-e1a6-45f3-a629-079fd20bdc86}, ! Handle
  MAT-CC05 8 HW CONCRETE,                 ! Name
  Rough,                                  ! Roughness
  0.20321,                                ! Thickness {m}
  1.311,                                  ! Conductivity {W/m-K}
  2240,                                   ! Density {kg/m3}
  836.8,                                  ! Specific Heat {J/kg-K}
  0.9,                                    ! Thermal Absorptance
  0.7,                                    ! Solar Absorptance
  0.7;                                    ! Visible Absorptance

OS:ComponentCost:LineItem,
  {28219708-b0e9-4be6-b352-15e6b180e257}, ! Handle
  90.1-2001 Res B6 Ext Slab Unheated - 8in Slab without Carpet, ! Name
  ,                                       ! Type
  Construction,                           ! Line Item Type
  90.1-2001 Res B6 Ext Slab Unheated - 8in Slab without Carpet, ! Item Name
  ,                                       ! Object End Use Key
  ,                                       ! Quantity {dimensionless}
  45.52,                                  ! Material Cost {$}
  CostPerArea;                            ! Material Cost Units

OS:ComponentData,
  {ada11427-dd67-40b2-b628-f3218b728cd9}, ! Handle
  Component Data 1,                       ! Name
  {f611550b-34ac-44e1-b7e3-db190088c1ff}, ! UUID
  {bad8b5c0-f6f5-4cbb-9111-fbea69771efb}, ! Version UUID
  1363981478,                             ! Creation Timestamp
  1363981478,                             ! Version Timestamp
  {6ea9a8db-0a95-45c8-b809-5b038c7bbe0c}, ! Name of Object 1
  {6a214915-e1a6-45f3-a629-079fd20bdc86}, ! Name of Object 2
  {28219708-b0e9-4be6-b352-15e6b180e257}; ! Name of Object 3

