
OS:Version,
  {3dfb8487-da70-4404-82f5-b038117e3af2}, ! Handle
  0.9.3;                                  ! Version Identifier

OS:Construction,
  {718d1d87-c25d-4277-9c8a-a2fe30341021}, ! Handle
  90.1-1999 Res B16 Ext Wall Metal Building, ! Name
  ,                                       ! Surface Rendering Name
  {1c41a9a6-9639-4cd1-9d38-963bd0000224}, ! Layer 1
  {e6739389-74b3-4075-a530-5824286c28ac}, ! Layer 2
  {e93a643f-ede8-44dc-8906-c0288e6aca2a}; ! Layer 3

OS:Material,
  {1c41a9a6-9639-4cd1-9d38-963bd0000224}, ! Handle
  Metal Siding,                           ! Name
  Smooth,                                 ! Roughness
  0.0015,                                 ! Thickness {m}
  44.96,                                  ! Conductivity {W/m-K}
  7688.86,                                ! Density {kg/m3}
  410,                                    ! Specific Heat {J/kg-K}
  0.9,                                    ! Thermal Absorptance
  0.2,                                    ! Solar Absorptance
  0.2;                                    ! Visible Absorptance

OS:Material,
  {e6739389-74b3-4075-a530-5824286c28ac}, ! Handle
  Wall Insulation [9],                    ! Name
  MediumRough,                            ! Roughness
  0.128642,                               ! Thickness {m}
  0.045,                                  ! Conductivity {W/m-K}
  265,                                    ! Density {kg/m3}
  836.8,                                  ! Specific Heat {J/kg-K}
  0.9,                                    ! Thermal Absorptance
  0.7,                                    ! Solar Absorptance
  0.7;                                    ! Visible Absorptance

OS:Material,
  {e93a643f-ede8-44dc-8906-c0288e6aca2a}, ! Handle
  1/2IN Gypsum,                           ! Name
  Smooth,                                 ! Roughness
  0.01271,                                ! Thickness {m}
  0.16,                                   ! Conductivity {W/m-K}
  784.9,                                  ! Density {kg/m3}
  830,                                    ! Specific Heat {J/kg-K}
  0.9,                                    ! Thermal Absorptance
  0.92,                                   ! Solar Absorptance
  0.92;                                   ! Visible Absorptance

OS:ComponentCost:LineItem,
  {18adcb88-8175-4918-bea7-41764d8fbaf3}, ! Handle
  90.1-1999 Res B16 Ext Wall Metal Building, ! Name
  ,                                       ! Type
  Construction,                           ! Line Item Type
  90.1-1999 Res B16 Ext Wall Metal Building, ! Item Name
  ,                                       ! Object End Use Key
  ,                                       ! Quantity {dimensionless}
  107.698,                                ! Material Cost {$}
  CostPerArea;                            ! Material Cost Units

