
OS:Version,
  {9aa1694f-1fb4-4c44-af62-034191d2e226}, ! Handle
  0.9.3;                                  ! Version Identifier

OS:ComponentCost:LineItem,
  {4e653376-7024-41b8-8f5e-f533c1c65581}, ! Handle
  90.1-2007 Nonres 5B Ext Wall Metal Building, ! Name
  ,                                       ! Type
  Construction,                           ! Line Item Type
  90.1-2007 Nonres 5B Ext Wall Metal Building, ! Item Name
  ,                                       ! Object End Use Key
  ,                                       ! Quantity {dimensionless}
  98.777,                                 ! Material Cost {$}
  CostPerArea;                            ! Material Cost Units

OS:Construction,
  {fad11105-1dee-4d72-ab4f-32420c970b04}, ! Handle
  90.1-2007 Nonres 5B Ext Wall Metal Building, ! Name
  ,                                       ! Surface Rendering Name
  {c266d6c8-c791-401f-bc0f-9f03d7c43981}, ! Layer 1
  {d7bbba6d-3fbb-4f35-bbb1-97b1b36829c9}, ! Layer 2
  {2725b1bf-8338-4cd4-a85e-e5e95275d231}; ! Layer 3

OS:Material,
  {c266d6c8-c791-401f-bc0f-9f03d7c43981}, ! Handle
  Metal Siding,                           ! Name
  Smooth,                                 ! Roughness
  0.0015,                                 ! Thickness {m}
  44.96,                                  ! Conductivity {W/m-K}
  7688.86,                                ! Density {kg/m3}
  410,                                    ! Specific Heat {J/kg-K}
  0.9,                                    ! Thermal Absorptance
  0.2,                                    ! Solar Absorptance
  0.2;                                    ! Visible Absorptance

OS:Material,
  {d7bbba6d-3fbb-4f35-bbb1-97b1b36829c9}, ! Handle
  Wall Insulation [23],                   ! Name
  MediumRough,                            ! Roughness
  0.0598327,                              ! Thickness {m}
  0.045,                                  ! Conductivity {W/m-K}
  265,                                    ! Density {kg/m3}
  836.8,                                  ! Specific Heat {J/kg-K}
  0.9,                                    ! Thermal Absorptance
  0.7,                                    ! Solar Absorptance
  0.7;                                    ! Visible Absorptance

OS:Material,
  {2725b1bf-8338-4cd4-a85e-e5e95275d231}, ! Handle
  1/2IN Gypsum,                           ! Name
  Smooth,                                 ! Roughness
  0.01271,                                ! Thickness {m}
  0.16,                                   ! Conductivity {W/m-K}
  784.9,                                  ! Density {kg/m3}
  830,                                    ! Specific Heat {J/kg-K}
  0.9,                                    ! Thermal Absorptance
  0.92,                                   ! Solar Absorptance
  0.92;                                   ! Visible Absorptance

