
OS:Version,
  {4c2ebaec-e6a5-46e5-9cc5-ffd422fddbf9}, ! Handle
  0.9.3;                                  ! Version Identifier

OS:Construction,
  {b7627736-419d-4b97-a55a-8fc406ec20cf}, ! Handle
  AEDG K12 Nonres 2A Roof IEAD,           ! Name
  ,                                       ! Surface Rendering Name
  {95a90919-e4ab-4bfa-a3e0-57cfb4f7d109}, ! Layer 1
  {1f3adc84-91df-4cb2-acb1-63f1f299f614}, ! Layer 2
  {ecdd1f88-3b97-444e-94ca-a38b7a0e453f}; ! Layer 3

OS:Material,
  {95a90919-e4ab-4bfa-a3e0-57cfb4f7d109}, ! Handle
  Roof Membrane,                          ! Name
  VeryRough,                              ! Roughness
  0.0095,                                 ! Thickness {m}
  0.16,                                   ! Conductivity {W/m-K}
  1121.29,                                ! Density {kg/m3}
  1460,                                   ! Specific Heat {J/kg-K}
  0.9,                                    ! Thermal Absorptance
  0.7,                                    ! Solar Absorptance
  0.7;                                    ! Visible Absorptance

OS:Material,
  {1f3adc84-91df-4cb2-acb1-63f1f299f614}, ! Handle
  Roof Insulation,                        ! Name
  MediumRough,                            ! Roughness
  0.124958,                               ! Thickness {m}
  0.049,                                  ! Conductivity {W/m-K}
  265,                                    ! Density {kg/m3}
  836.8,                                  ! Specific Heat {J/kg-K}
  0.9,                                    ! Thermal Absorptance
  0.7,                                    ! Solar Absorptance
  0.7;                                    ! Visible Absorptance

OS:Material,
  {ecdd1f88-3b97-444e-94ca-a38b7a0e453f}, ! Handle
  Metal Decking,                          ! Name
  MediumSmooth,                           ! Roughness
  0.001524,                               ! Thickness {m}
  45.006,                                 ! Conductivity {W/m-K}
  7680,                                   ! Density {kg/m3}
  418.4,                                  ! Specific Heat {J/kg-K}
  0.9,                                    ! Thermal Absorptance
  0.7,                                    ! Solar Absorptance
  0.3;                                    ! Visible Absorptance

OS:ComponentCost:LineItem,
  {0f53f9e1-c27b-41b3-b13a-f680b3e3246f}, ! Handle
  AEDG K12 Nonres 2A Roof IEAD,           ! Name
  ,                                       ! Type
  Construction,                           ! Line Item Type
  AEDG K12 Nonres 2A Roof IEAD,           ! Item Name
  ,                                       ! Object End Use Key
  ,                                       ! Quantity {dimensionless}
  98.49,                                  ! Material Cost {$}
  CostPerArea;                            ! Material Cost Units

OS:ComponentData,
  {2951b126-b7bf-47d6-8c33-be18a1d5b4c2}, ! Handle
  Component Data 1,                       ! Name
  {b23ff5f7-8e32-4a1a-8dcd-9ef31a41b270}, ! UUID
  {61be81b8-9ab2-454f-b6ae-921988198281}, ! Version UUID
  1363981884,                             ! Creation Timestamp
  1363981884,                             ! Version Timestamp
  {b7627736-419d-4b97-a55a-8fc406ec20cf}, ! Name of Object 1
  {95a90919-e4ab-4bfa-a3e0-57cfb4f7d109}, ! Name of Object 2
  {1f3adc84-91df-4cb2-acb1-63f1f299f614}, ! Name of Object 3
  {ecdd1f88-3b97-444e-94ca-a38b7a0e453f}, ! Name of Object 4
  {0f53f9e1-c27b-41b3-b13a-f680b3e3246f}; ! Name of Object 5

