
OS:Version,
  {6b9ad3a9-51ff-414e-991e-e8488c2d47cd}, ! Handle
  0.9.3;                                  ! Version Identifier

OS:Construction,
  {a995e58b-5535-4c2a-8423-a8c404f6b30c}, ! Handle
  AEDG K12 Nonres 2A Roof IEAD,           ! Name
  ,                                       ! Surface Rendering Name
  {87276051-ecfb-4dff-a5c3-5e0ae5baf2c4}, ! Layer 1
  {858c1a5c-59ae-480b-b5d3-d825aa06536b}, ! Layer 2
  {ab1e42d5-14d2-475a-b4e1-17614ac966ff}; ! Layer 3

OS:Material,
  {87276051-ecfb-4dff-a5c3-5e0ae5baf2c4}, ! Handle
  Roof Membrane,                          ! Name
  VeryRough,                              ! Roughness
  0.0095,                                 ! Thickness {m}
  0.16,                                   ! Conductivity {W/m-K}
  1121.29,                                ! Density {kg/m3}
  1460,                                   ! Specific Heat {J/kg-K}
  0.9,                                    ! Thermal Absorptance
  0.7,                                    ! Solar Absorptance
  0.7;                                    ! Visible Absorptance

OS:Material,
  {858c1a5c-59ae-480b-b5d3-d825aa06536b}, ! Handle
  Roof Insulation,                        ! Name
  MediumRough,                            ! Roughness
  0.124958,                               ! Thickness {m}
  0.049,                                  ! Conductivity {W/m-K}
  265,                                    ! Density {kg/m3}
  836.8,                                  ! Specific Heat {J/kg-K}
  0.9,                                    ! Thermal Absorptance
  0.7,                                    ! Solar Absorptance
  0.7;                                    ! Visible Absorptance

OS:Material,
  {ab1e42d5-14d2-475a-b4e1-17614ac966ff}, ! Handle
  Metal Decking,                          ! Name
  MediumSmooth,                           ! Roughness
  0.001524,                               ! Thickness {m}
  45.006,                                 ! Conductivity {W/m-K}
  7680,                                   ! Density {kg/m3}
  418.4,                                  ! Specific Heat {J/kg-K}
  0.9,                                    ! Thermal Absorptance
  0.7,                                    ! Solar Absorptance
  0.3;                                    ! Visible Absorptance

OS:ComponentCost:LineItem,
  {321b3ef0-12dd-4863-ad5d-0a8207d5f7c3}, ! Handle
  AEDG K12 Nonres 2A Roof IEAD,           ! Name
  ,                                       ! Type
  Construction,                           ! Line Item Type
  AEDG K12 Nonres 2A Roof IEAD,           ! Item Name
  ,                                       ! Object End Use Key
  ,                                       ! Quantity {dimensionless}
  98.49,                                  ! Material Cost {$}
  CostPerArea;                            ! Material Cost Units

