
OS:Version,
  {e879961c-7c88-4663-ba26-7270e18ccd20}, ! Handle
  0.9.3;                                  ! Version Identifier

OS:Construction,
  {c71bbf28-80dd-4a87-a84f-956646485ff0}, ! Handle
  90.1-1999 Nonres B19 Ext Wall Metal Building, ! Name
  ,                                       ! Surface Rendering Name
  {1a215317-cf19-46c1-a4ce-0473fc42305c}, ! Layer 1
  {f16ed985-35f3-46d0-9cd5-fd02c24d4f95}, ! Layer 2
  {ee9def5b-c925-4e71-8f78-0be83e97dc5f}; ! Layer 3

OS:Material,
  {1a215317-cf19-46c1-a4ce-0473fc42305c}, ! Handle
  Metal Siding,                           ! Name
  Smooth,                                 ! Roughness
  0.0015,                                 ! Thickness {m}
  44.96,                                  ! Conductivity {W/m-K}
  7688.86,                                ! Density {kg/m3}
  410,                                    ! Specific Heat {J/kg-K}
  0.9,                                    ! Thermal Absorptance
  0.2,                                    ! Solar Absorptance
  0.2;                                    ! Visible Absorptance

OS:Material,
  {f16ed985-35f3-46d0-9cd5-fd02c24d4f95}, ! Handle
  Wall Insulation,                        ! Name
  MediumRough,                            ! Roughness
  0.0598725,                              ! Thickness {m}
  0.045,                                  ! Conductivity {W/m-K}
  265,                                    ! Density {kg/m3}
  836.8,                                  ! Specific Heat {J/kg-K}
  0.9,                                    ! Thermal Absorptance
  0.7,                                    ! Solar Absorptance
  0.7;                                    ! Visible Absorptance

OS:Material,
  {ee9def5b-c925-4e71-8f78-0be83e97dc5f}, ! Handle
  1/2IN Gypsum,                           ! Name
  Smooth,                                 ! Roughness
  0.01271,                                ! Thickness {m}
  0.16,                                   ! Conductivity {W/m-K}
  784.9,                                  ! Density {kg/m3}
  830,                                    ! Specific Heat {J/kg-K}
  0.9,                                    ! Thermal Absorptance
  0.92,                                   ! Solar Absorptance
  0.92;                                   ! Visible Absorptance

OS:ComponentCost:LineItem,
  {04f97031-ec7d-494f-ac3e-a0c0c3b9d0e3}, ! Handle
  90.1-1999 Nonres B19 Ext Wall Metal Building, ! Name
  ,                                       ! Type
  Construction,                           ! Line Item Type
  90.1-1999 Nonres B19 Ext Wall Metal Building, ! Item Name
  ,                                       ! Object End Use Key
  ,                                       ! Quantity {dimensionless}
  98.78,                                  ! Material Cost {$}
  CostPerArea;                            ! Material Cost Units

OS:ComponentData,
  {1ba8f89e-b387-4ce5-a215-3e12374467d1}, ! Handle
  Component Data 1,                       ! Name
  {697c9dab-f028-4ea5-a90e-edfef6468ded}, ! UUID
  {d134ab09-a466-46a5-95b7-8fffc93c922c}, ! Version UUID
  1363981123,                             ! Creation Timestamp
  1363981123,                             ! Version Timestamp
  {c71bbf28-80dd-4a87-a84f-956646485ff0}, ! Name of Object 1
  {1a215317-cf19-46c1-a4ce-0473fc42305c}, ! Name of Object 2
  {f16ed985-35f3-46d0-9cd5-fd02c24d4f95}, ! Name of Object 3
  {ee9def5b-c925-4e71-8f78-0be83e97dc5f}, ! Name of Object 4
  {04f97031-ec7d-494f-ac3e-a0c0c3b9d0e3}; ! Name of Object 5

