
OS:Version,
  {5bd1e8d7-6e0f-4f57-b9d4-39f691b3db54}, ! Handle
  0.9.3;                                  ! Version Identifier

OS:Material,
  {ccda8fa4-63bd-49ff-82e2-5bcf5611f30e}, ! Handle
  Wall Insulation,                        ! Name
  MediumRough,                            ! Roughness
  0.0598725,                              ! Thickness {m}
  0.045,                                  ! Conductivity {W/m-K}
  265,                                    ! Density {kg/m3}
  836.8,                                  ! Specific Heat {J/kg-K}
  0.9,                                    ! Thermal Absorptance
  0.7,                                    ! Solar Absorptance
  0.7;                                    ! Visible Absorptance

OS:Material,
  {64612af1-1840-4c1f-b7cd-74b58dfb6e5c}, ! Handle
  1/2IN Gypsum,                           ! Name
  Smooth,                                 ! Roughness
  0.01271,                                ! Thickness {m}
  0.16,                                   ! Conductivity {W/m-K}
  784.9,                                  ! Density {kg/m3}
  830,                                    ! Specific Heat {J/kg-K}
  0.9,                                    ! Thermal Absorptance
  0.92,                                   ! Solar Absorptance
  0.92;                                   ! Visible Absorptance

OS:Material,
  {f5347765-182a-47ad-8787-cab59514a65c}, ! Handle
  Metal Siding,                           ! Name
  Smooth,                                 ! Roughness
  0.0015,                                 ! Thickness {m}
  44.96,                                  ! Conductivity {W/m-K}
  7688.86,                                ! Density {kg/m3}
  410,                                    ! Specific Heat {J/kg-K}
  0.9,                                    ! Thermal Absorptance
  0.2,                                    ! Solar Absorptance
  0.2;                                    ! Visible Absorptance

OS:ComponentCost:LineItem,
  {198bcaf3-233d-4ded-b286-8ae759931792}, ! Handle
  90.1-1999 Nonres B19 Ext Wall Metal Building, ! Name
  ,                                       ! Type
  Construction,                           ! Line Item Type
  90.1-1999 Nonres B19 Ext Wall Metal Building, ! Item Name
  ,                                       ! Object End Use Key
  ,                                       ! Quantity {dimensionless}
  98.78,                                  ! Material Cost {$}
  CostPerArea;                            ! Material Cost Units

OS:Construction,
  {ca0ea71b-28cd-43ad-86c8-f94c0b299eb4}, ! Handle
  90.1-1999 Nonres B19 Ext Wall Metal Building, ! Name
  ,                                       ! Surface Rendering Name
  {f5347765-182a-47ad-8787-cab59514a65c}, ! Layer 1
  {ccda8fa4-63bd-49ff-82e2-5bcf5611f30e}, ! Layer 2
  {64612af1-1840-4c1f-b7cd-74b58dfb6e5c}; ! Layer 3

