
OS:Version,
  {598b8239-a4b4-408a-ab53-108eefee22e3}, ! Handle
  0.9.3;                                  ! Version Identifier

OS:Material,
  {71ec11f1-81e5-456d-870e-a2938e59d999}, ! Handle
  1/2IN Gypsum,                           ! Name
  Smooth,                                 ! Roughness
  0.01271,                                ! Thickness {m}
  0.16,                                   ! Conductivity {W/m-K}
  784.9,                                  ! Density {kg/m3}
  830,                                    ! Specific Heat {J/kg-K}
  0.9,                                    ! Thermal Absorptance
  0.92,                                   ! Solar Absorptance
  0.92;                                   ! Visible Absorptance

OS:Material,
  {e99f9927-e8d8-4317-83fc-36f0c2f79fdc}, ! Handle
  Wall Insulation [9],                    ! Name
  MediumRough,                            ! Roughness
  0.128642,                               ! Thickness {m}
  0.045,                                  ! Conductivity {W/m-K}
  265,                                    ! Density {kg/m3}
  836.8,                                  ! Specific Heat {J/kg-K}
  0.9,                                    ! Thermal Absorptance
  0.7,                                    ! Solar Absorptance
  0.7;                                    ! Visible Absorptance

OS:Material,
  {9f4ad257-82e7-44e4-92d7-7011b81b8a45}, ! Handle
  Metal Siding,                           ! Name
  Smooth,                                 ! Roughness
  0.0015,                                 ! Thickness {m}
  44.96,                                  ! Conductivity {W/m-K}
  7688.86,                                ! Density {kg/m3}
  410,                                    ! Specific Heat {J/kg-K}
  0.9,                                    ! Thermal Absorptance
  0.2,                                    ! Solar Absorptance
  0.2;                                    ! Visible Absorptance

OS:Construction,
  {d5a49f43-dded-44b1-9896-b11a30e001dc}, ! Handle
  90.1-2001 Nonres B24 Ext Wall Metal Building, ! Name
  ,                                       ! Surface Rendering Name
  {9f4ad257-82e7-44e4-92d7-7011b81b8a45}, ! Layer 1
  {e99f9927-e8d8-4317-83fc-36f0c2f79fdc}, ! Layer 2
  {71ec11f1-81e5-456d-870e-a2938e59d999}; ! Layer 3

OS:ComponentCost:LineItem,
  {472cdd6f-92fd-4dcb-919e-bbc14507329e}, ! Handle
  90.1-2001 Nonres B24 Ext Wall Metal Building, ! Name
  ,                                       ! Type
  Construction,                           ! Line Item Type
  90.1-2001 Nonres B24 Ext Wall Metal Building, ! Item Name
  ,                                       ! Object End Use Key
  ,                                       ! Quantity {dimensionless}
  107.698,                                ! Material Cost {$}
  CostPerArea;                            ! Material Cost Units

