
OS:Version,
  {0c729800-d5d1-4d38-a4e1-bdd559246478}, ! Handle
  0.9.3;                                  ! Version Identifier

OS:Construction,
  {1bca00db-92ce-4407-8628-6d4684f166e2}, ! Handle
  90.1-1999 Nonres B26 Roof IEAD,         ! Name
  ,                                       ! Surface Rendering Name
  {0c69cdb4-22e7-4dbd-b667-28c8b78a4361}, ! Layer 1
  {e1b2b4e6-5031-4e53-8f7d-eaa5598f84e6}, ! Layer 2
  {e33c1a2c-9371-4a3c-9fe4-e5c1f3978c70}; ! Layer 3

OS:Material,
  {0c69cdb4-22e7-4dbd-b667-28c8b78a4361}, ! Handle
  Roof Membrane,                          ! Name
  VeryRough,                              ! Roughness
  0.0095,                                 ! Thickness {m}
  0.16,                                   ! Conductivity {W/m-K}
  1121.29,                                ! Density {kg/m3}
  1460,                                   ! Specific Heat {J/kg-K}
  0.9,                                    ! Thermal Absorptance
  0.7,                                    ! Solar Absorptance
  0.7;                                    ! Visible Absorptance

OS:Material,
  {e1b2b4e6-5031-4e53-8f7d-eaa5598f84e6}, ! Handle
  Roof Insulation [9],                    ! Name
  MediumRough,                            ! Roughness
  0.209009,                               ! Thickness {m}
  0.049,                                  ! Conductivity {W/m-K}
  265,                                    ! Density {kg/m3}
  836.8,                                  ! Specific Heat {J/kg-K}
  0.9,                                    ! Thermal Absorptance
  0.7,                                    ! Solar Absorptance
  0.7;                                    ! Visible Absorptance

OS:Material,
  {e33c1a2c-9371-4a3c-9fe4-e5c1f3978c70}, ! Handle
  Metal Decking,                          ! Name
  MediumSmooth,                           ! Roughness
  0.001524,                               ! Thickness {m}
  45.006,                                 ! Conductivity {W/m-K}
  7680,                                   ! Density {kg/m3}
  418.4,                                  ! Specific Heat {J/kg-K}
  0.9,                                    ! Thermal Absorptance
  0.7,                                    ! Solar Absorptance
  0.3;                                    ! Visible Absorptance

OS:ComponentCost:LineItem,
  {71b35f37-5f11-47bb-a7db-58b155276fdb}, ! Handle
  90.1-1999 Nonres B26 Roof IEAD,         ! Name
  ,                                       ! Type
  Construction,                           ! Line Item Type
  90.1-1999 Nonres B26 Roof IEAD,         ! Item Name
  ,                                       ! Object End Use Key
  ,                                       ! Quantity {dimensionless}
  56.539,                                 ! Material Cost {$}
  CostPerArea;                            ! Material Cost Units

OS:ComponentData,
  {42ebc9a1-f29a-4eef-86da-ff1d37872e77}, ! Handle
  Component Data 1,                       ! Name
  {5d589fa3-aaa8-4eff-9562-760a75343575}, ! UUID
  {5ee88305-d171-4877-92a2-6ffe04e8c8b0}, ! Version UUID
  1363981156,                             ! Creation Timestamp
  1363981156,                             ! Version Timestamp
  {1bca00db-92ce-4407-8628-6d4684f166e2}, ! Name of Object 1
  {0c69cdb4-22e7-4dbd-b667-28c8b78a4361}, ! Name of Object 2
  {e1b2b4e6-5031-4e53-8f7d-eaa5598f84e6}, ! Name of Object 3
  {e33c1a2c-9371-4a3c-9fe4-e5c1f3978c70}, ! Name of Object 4
  {71b35f37-5f11-47bb-a7db-58b155276fdb}; ! Name of Object 5

