
OS:Version,
  {60942102-9ba7-477b-96ec-aa7a5b562572}, ! Handle
  0.9.3;                                  ! Version Identifier

OS:Construction,
  {05029863-89e5-4cfe-8285-aba632fa5cfb}, ! Handle
  90.1-1999 Nonres B26 Roof IEAD,         ! Name
  ,                                       ! Surface Rendering Name
  {332df429-68d1-4978-82ce-68a6610be094}, ! Layer 1
  {b2b0a8de-304c-4ce3-a6e4-6064e72baa51}, ! Layer 2
  {8fb46f87-21db-41b4-9680-6005ffaf6913}; ! Layer 3

OS:Material,
  {332df429-68d1-4978-82ce-68a6610be094}, ! Handle
  Roof Membrane,                          ! Name
  VeryRough,                              ! Roughness
  0.0095,                                 ! Thickness {m}
  0.16,                                   ! Conductivity {W/m-K}
  1121.29,                                ! Density {kg/m3}
  1460,                                   ! Specific Heat {J/kg-K}
  0.9,                                    ! Thermal Absorptance
  0.7,                                    ! Solar Absorptance
  0.7;                                    ! Visible Absorptance

OS:Material,
  {b2b0a8de-304c-4ce3-a6e4-6064e72baa51}, ! Handle
  Roof Insulation [9],                    ! Name
  MediumRough,                            ! Roughness
  0.209009,                               ! Thickness {m}
  0.049,                                  ! Conductivity {W/m-K}
  265,                                    ! Density {kg/m3}
  836.8,                                  ! Specific Heat {J/kg-K}
  0.9,                                    ! Thermal Absorptance
  0.7,                                    ! Solar Absorptance
  0.7;                                    ! Visible Absorptance

OS:Material,
  {8fb46f87-21db-41b4-9680-6005ffaf6913}, ! Handle
  Metal Decking,                          ! Name
  MediumSmooth,                           ! Roughness
  0.001524,                               ! Thickness {m}
  45.006,                                 ! Conductivity {W/m-K}
  7680,                                   ! Density {kg/m3}
  418.4,                                  ! Specific Heat {J/kg-K}
  0.9,                                    ! Thermal Absorptance
  0.7,                                    ! Solar Absorptance
  0.3;                                    ! Visible Absorptance

OS:ComponentCost:LineItem,
  {4e2491a7-553a-4bc3-bff2-bad7fdd2dbc0}, ! Handle
  90.1-1999 Nonres B26 Roof IEAD,         ! Name
  ,                                       ! Type
  Construction,                           ! Line Item Type
  90.1-1999 Nonres B26 Roof IEAD,         ! Item Name
  ,                                       ! Object End Use Key
  ,                                       ! Quantity {dimensionless}
  56.539,                                 ! Material Cost {$}
  CostPerArea;                            ! Material Cost Units

