
OS:Version,
  {2be7a271-9f61-4148-b856-59797f349f0a}, ! Handle
  0.9.3;                                  ! Version Identifier

OS:ComponentCost:LineItem,
  {8f9ecbbc-aaab-4dc8-8be3-383585ec1fa3}, ! Handle
  189.1-2009 Res 3A Int Wall,             ! Name
  ,                                       ! Type
  Construction,                           ! Line Item Type
  189.1-2009 Res 3A Int Wall,             ! Item Name
  ,                                       ! Object End Use Key
  ,                                       ! Quantity {dimensionless}
  0,                                      ! Material Cost {$}
  CostPerArea;                            ! Material Cost Units

OS:Construction,
  {32c52a74-9008-48a8-a55e-e42e159ce393}, ! Handle
  189.1-2009 Res 3A Int Wall,             ! Name
  ,                                       ! Surface Rendering Name
  {b14a1005-e6b1-4e7b-984f-da638f4702ba}, ! Layer 1
  {b14a1005-e6b1-4e7b-984f-da638f4702ba}; ! Layer 2

OS:Material,
  {b14a1005-e6b1-4e7b-984f-da638f4702ba}, ! Handle
  GP01 1/2 GYPSUM,                        ! Name
  Smooth,                                 ! Roughness
  0.01271,                                ! Thickness {m}
  0.16,                                   ! Conductivity {W/m-K}
  800,                                    ! Density {kg/m3}
  1090,                                   ! Specific Heat {J/kg-K}
  0.9,                                    ! Thermal Absorptance
  0.7,                                    ! Solar Absorptance
  0.5;                                    ! Visible Absorptance

OS:Material,
  {6359f7d7-0310-4ca4-8b0e-a7faf86097fe}, ! Handle
  GP01 1/2 GYPSUM 1,                      ! Name
  Smooth,                                 ! Roughness
  0.01271,                                ! Thickness {m}
  0.16,                                   ! Conductivity {W/m-K}
  800,                                    ! Density {kg/m3}
  1090,                                   ! Specific Heat {J/kg-K}
  0.9,                                    ! Thermal Absorptance
  0.7,                                    ! Solar Absorptance
  0.5;                                    ! Visible Absorptance

