
OS:Version,
  {0c6e0c71-88ef-4bc3-997e-1ace2e023535}, !- Handle
  1.1.0;                                  !- Version Identifier

OS:Construction,
  {b6a67503-9eb8-48fd-9d96-8de86f950448}, !- Handle
  Dbl LoE Elec Abs Bleached 6mm/6mm Air,  !- Name
  ,                                       !- Surface Rendering Name
  {b989916a-5a79-4bbd-acf9-2f16caa712e5}, !- Layer 1
  {13c5f8f1-2777-4abf-a1d0-47e2806e2019}, !- Layer 2
  {3a728af8-8837-408f-8591-87a85a58239d}; !- Layer 3

OS:WindowMaterial:Glazing,
  {b989916a-5a79-4bbd-acf9-2f16caa712e5}, !- Handle
  ECABS-2 BLEACHED 6MM,                   !- Name
  SpectralAverage,                        !- Optical Data Type
  ,                                       !- Window Glass Spectral Data Set Name
  0.006,                                  !- Thickness {m}
  0.814,                                  !- Solar Transmittance at Normal Incidence
  0.086,                                  !- Front Side Solar Reflectance at Normal Incidence
  0.086,                                  !- Back Side Solar Reflectance at Normal Incidence
  0.847,                                  !- Visible Transmittance at Normal Incidence
  0.099,                                  !- Front Side Visible Reflectance at Normal Incidence
  0.099,                                  !- Back Side Visible Reflectance at Normal Incidence
  0,                                      !- Infrared Transmittance at Normal Incidence
  0.84,                                   !- Front Side Infrared Hemispherical Emissivity
  0.1,                                    !- Back Side Infrared Hemispherical Emissivity
  0.9;                                    !- Conductivity {W/m-K}

OS:WindowMaterial:Gas,
  {13c5f8f1-2777-4abf-a1d0-47e2806e2019}, !- Handle
  AIR 6MM,                                !- Name
  Air,                                    !- Gas Type
  0.0063;                                 !- Thickness {m}

OS:WindowMaterial:Glazing,
  {3a728af8-8837-408f-8591-87a85a58239d}, !- Handle
  LoE SPEC SEL CLEAR 6MM Rev,             !- Name
  SpectralAverage,                        !- Optical Data Type
  ,                                       !- Window Glass Spectral Data Set Name
  0.006,                                  !- Thickness {m}
  0.43,                                   !- Solar Transmittance at Normal Incidence
  0.42,                                   !- Front Side Solar Reflectance at Normal Incidence
  0.3,                                    !- Back Side Solar Reflectance at Normal Incidence
  0.77,                                   !- Visible Transmittance at Normal Incidence
  0.06,                                   !- Front Side Visible Reflectance at Normal Incidence
  0.07,                                   !- Back Side Visible Reflectance at Normal Incidence
  0,                                      !- Infrared Transmittance at Normal Incidence
  0.03,                                   !- Front Side Infrared Hemispherical Emissivity
  0.84,                                   !- Back Side Infrared Hemispherical Emissivity
  0.9;                                    !- Conductivity {W/m-K}

