
OS:Version,
  {8597cd41-99b9-4c3a-8e71-16bc014fbfc2}, ! Handle
  0.9.3;                                  ! Version Identifier

OS:WindowMaterial:Glazing,
  {4c77b8c4-e5f6-4a3d-8278-3b90f3e88607}, ! Handle
  Theoretical Glass [476],                ! Name
  SpectralAverage,                        ! Optical Data Type
  ,                                       ! Window Glass Spectral Data Set Name
  0.003,                                  ! Thickness {m}
  0.27675,                                ! Solar Transmittance at Normal Incidence
  0.67325,                                ! Front Side Solar Reflectance at Normal Incidence
  0.67325,                                ! Back Side Solar Reflectance at Normal Incidence
  0.450308,                               ! Visible Transmittance at Normal Incidence
  0.499692,                               ! Front Side Visible Reflectance at Normal Incidence
  0.499692,                               ! Back Side Visible Reflectance at Normal Incidence
  0,                                      ! Infrared Transmittance at Normal Incidence
  0.9,                                    ! Front Side Infrared Hemispherical Emissivity
  0.9,                                    ! Back Side Infrared Hemispherical Emissivity
  0.00918759;                             ! Conductivity {W/m-K}

OS:Construction,
  {b70593ee-5dd5-484c-9a9f-ad00f880cc01}, ! Handle
  90.1 Windows Window Fixed 2543 Vnl-Hpt-Std-ClrSue, ! Name
  ,                                       ! Surface Rendering Name
  {4c77b8c4-e5f6-4a3d-8278-3b90f3e88607}; ! Layer 1

OS:ComponentCost:LineItem,
  {7d4959d6-ef03-4c07-956c-a7288a0d0c87}, ! Handle
  90.1 Windows Window Fixed 2543 Vnl-Hpt-Std-ClrSue, ! Name
  ,                                       ! Type
  Construction,                           ! Line Item Type
  90.1 Windows Window Fixed 2543 Vnl-Hpt-Std-ClrSue, ! Item Name
  ,                                       ! Object End Use Key
  ,                                       ! Quantity {dimensionless}
  0,                                      ! Material Cost {$}
  CostPerArea;                            ! Material Cost Units

