
OS:Version,
  {90a19230-2fff-420c-b4f8-0c8b5a3ff6f9}, ! Handle
  0.9.3;                                  ! Version Identifier

OS:Material,
  {88c61313-cf76-4a38-851e-99dad964ec23}, ! Handle
  Roof Insulation,                        ! Name
  MediumRough,                            ! Roughness
  0.124958,                               ! Thickness {m}
  0.049,                                  ! Conductivity {W/m-K}
  265,                                    ! Density {kg/m3}
  836.8,                                  ! Specific Heat {J/kg-K}
  0.9,                                    ! Thermal Absorptance
  0.7,                                    ! Solar Absorptance
  0.7;                                    ! Visible Absorptance

OS:Material,
  {62c8d704-3138-4d6c-8a5a-5571ef45dfc5}, ! Handle
  Metal Decking,                          ! Name
  MediumSmooth,                           ! Roughness
  0.001524,                               ! Thickness {m}
  45.006,                                 ! Conductivity {W/m-K}
  7680,                                   ! Density {kg/m3}
  418.4,                                  ! Specific Heat {J/kg-K}
  0.9,                                    ! Thermal Absorptance
  0.7,                                    ! Solar Absorptance
  0.3;                                    ! Visible Absorptance

OS:ComponentCost:LineItem,
  {3b34694f-fddc-4c1d-94cf-e07104b83aae}, ! Handle
  90.1-2004 Res 4B Roof IEAD,             ! Name
  ,                                       ! Type
  Construction,                           ! Line Item Type
  90.1-2004 Res 4B Roof IEAD,             ! Item Name
  ,                                       ! Object End Use Key
  ,                                       ! Quantity {dimensionless}
  49.208,                                 ! Material Cost {$}
  CostPerArea;                            ! Material Cost Units

OS:Construction,
  {e7743124-935a-4966-ad02-82487a30de52}, ! Handle
  90.1-2004 Res 4B Roof IEAD,             ! Name
  ,                                       ! Surface Rendering Name
  {8ee085d5-2f9f-4cd9-9e47-91cae5c457c3}, ! Layer 1
  {88c61313-cf76-4a38-851e-99dad964ec23}, ! Layer 2
  {62c8d704-3138-4d6c-8a5a-5571ef45dfc5}; ! Layer 3

OS:Material,
  {8ee085d5-2f9f-4cd9-9e47-91cae5c457c3}, ! Handle
  Roof Membrane,                          ! Name
  VeryRough,                              ! Roughness
  0.0095,                                 ! Thickness {m}
  0.16,                                   ! Conductivity {W/m-K}
  1121.29,                                ! Density {kg/m3}
  1460,                                   ! Specific Heat {J/kg-K}
  0.9,                                    ! Thermal Absorptance
  0.7,                                    ! Solar Absorptance
  0.7;                                    ! Visible Absorptance

