
OS:Version,
  {1f9cc196-18c7-4c7b-9577-5a80bdd166ad}, ! Handle
  0.9.3;                                  ! Version Identifier

OS:Construction,
  {dd5e6dfc-59a9-4ec3-ae72-7ce2806b74ed}, ! Handle
  90.1 Windows Window Fixed 2141 Mtl-Clr-Std-ClrSue, ! Name
  ,                                       ! Surface Rendering Name
  {b7ffa820-7529-4152-a182-ca25b2081b85}; ! Layer 1

OS:WindowMaterial:Glazing,
  {b7ffa820-7529-4152-a182-ca25b2081b85}, ! Handle
  Theoretical Glass [306],                ! Name
  SpectralAverage,                        ! Optical Data Type
  ,                                       ! Window Glass Spectral Data Set Name
  0.003,                                  ! Thickness {m}
  0.482641,                               ! Solar Transmittance at Normal Incidence
  0.467359,                               ! Front Side Solar Reflectance at Normal Incidence
  0.467359,                               ! Back Side Solar Reflectance at Normal Incidence
  0.619384,                               ! Visible Transmittance at Normal Incidence
  0.330616,                               ! Front Side Visible Reflectance at Normal Incidence
  0.330616,                               ! Back Side Visible Reflectance at Normal Incidence
  0,                                      ! Infrared Transmittance at Normal Incidence
  0.9,                                    ! Front Side Infrared Hemispherical Emissivity
  0.9,                                    ! Back Side Infrared Hemispherical Emissivity
  0.0198691;                              ! Conductivity {W/m-K}

OS:ComponentCost:LineItem,
  {4207103e-4d47-4fdc-9154-8e3c276d7da3}, ! Handle
  90.1 Windows Window Fixed 2141 Mtl-Clr-Std-ClrSue, ! Name
  ,                                       ! Type
  Construction,                           ! Line Item Type
  90.1 Windows Window Fixed 2141 Mtl-Clr-Std-ClrSue, ! Item Name
  ,                                       ! Object End Use Key
  ,                                       ! Quantity {dimensionless}
  0,                                      ! Material Cost {$}
  CostPerArea;                            ! Material Cost Units

