
OS:Version,
  {de7b23c4-c34f-4d3e-9529-c8dbe656fd56}, ! Handle
  0.9.3;                                  ! Version Identifier

OS:Construction,
  {4b9e9a63-6fdc-45eb-bc71-496635d3772e}, ! Handle
  90.1 Windows Window Fixed 2141 Mtl-Clr-Std-ClrSue, ! Name
  ,                                       ! Surface Rendering Name
  {a2dd2ef6-8082-41aa-8a82-9a0bafd722a1}; ! Layer 1

OS:WindowMaterial:Glazing,
  {a2dd2ef6-8082-41aa-8a82-9a0bafd722a1}, ! Handle
  Theoretical Glass [306],                ! Name
  SpectralAverage,                        ! Optical Data Type
  ,                                       ! Window Glass Spectral Data Set Name
  0.003,                                  ! Thickness {m}
  0.482641,                               ! Solar Transmittance at Normal Incidence
  0.467359,                               ! Front Side Solar Reflectance at Normal Incidence
  0.467359,                               ! Back Side Solar Reflectance at Normal Incidence
  0.619384,                               ! Visible Transmittance at Normal Incidence
  0.330616,                               ! Front Side Visible Reflectance at Normal Incidence
  0.330616,                               ! Back Side Visible Reflectance at Normal Incidence
  0,                                      ! Infrared Transmittance at Normal Incidence
  0.9,                                    ! Front Side Infrared Hemispherical Emissivity
  0.9,                                    ! Back Side Infrared Hemispherical Emissivity
  0.0198691;                              ! Conductivity {W/m-K}

OS:ComponentCost:LineItem,
  {bf489faf-4714-42b5-8313-665261512e55}, ! Handle
  90.1 Windows Window Fixed 2141 Mtl-Clr-Std-ClrSue, ! Name
  ,                                       ! Type
  Construction,                           ! Line Item Type
  90.1 Windows Window Fixed 2141 Mtl-Clr-Std-ClrSue, ! Item Name
  ,                                       ! Object End Use Key
  ,                                       ! Quantity {dimensionless}
  0,                                      ! Material Cost {$}
  CostPerArea;                            ! Material Cost Units

OS:ComponentData,
  {ddff36cf-bfc8-40bc-a7c8-361ea5e5c9b8}, ! Handle
  Component Data 1,                       ! Name
  {e1116272-4ebd-40ec-b5e9-37648d7d91f2}, ! UUID
  {7356bde1-e7f0-4716-af6b-246e5b66caeb}, ! Version UUID
  1363981005,                             ! Creation Timestamp
  1363981005,                             ! Version Timestamp
  {4b9e9a63-6fdc-45eb-bc71-496635d3772e}, ! Name of Object 1
  {a2dd2ef6-8082-41aa-8a82-9a0bafd722a1}, ! Name of Object 2
  {bf489faf-4714-42b5-8313-665261512e55}; ! Name of Object 3

