
OS:Version,
  {92df45d7-52c3-4e0a-b12a-8579fd6adc23}, ! Handle
  0.9.3;                                  ! Version Identifier

OS:Material,
  {fe7bd105-9ff8-4cec-ac2b-ae7eef2e1736}, ! Handle
  1/2IN Gypsum Top,                       ! Name
  Smooth,                                 ! Roughness
  0.01271,                                ! Thickness {m}
  0.16,                                   ! Conductivity {W/m-K}
  784.9,                                  ! Density {kg/m3}
  830,                                    ! Specific Heat {J/kg-K}
  0.9,                                    ! Thermal Absorptance
  0.92,                                   ! Solar Absorptance
  0.92;                                   ! Visible Absorptance

OS:Material,
  {b044f62c-b263-47cc-a91f-1bc6ab7d318f}, ! Handle
  1/2IN Gypsum Bottom,                    ! Name
  Smooth,                                 ! Roughness
  0.01271,                                ! Thickness {m}
  0.16,                                   ! Conductivity {W/m-K}
  784.9,                                  ! Density {kg/m3}
  830,                                    ! Specific Heat {J/kg-K}
  0.9,                                    ! Thermal Absorptance
  0.92,                                   ! Solar Absorptance
  0.92;                                   ! Visible Absorptance

OS:Construction,
  {f3e2e1a7-c0dd-4c3f-bae7-e8fc9990ecaa}, ! Handle
  AEDG SHC Nonres 6B Attic Floor,         ! Name
  ,                                       ! Surface Rendering Name
  {fe7bd105-9ff8-4cec-ac2b-ae7eef2e1736}, ! Layer 1
  {703859f9-875b-4dd6-8872-5e5837388109}, ! Layer 2
  {b044f62c-b263-47cc-a91f-1bc6ab7d318f}; ! Layer 3

OS:Material,
  {703859f9-875b-4dd6-8872-5e5837388109}, ! Handle
  AtticFloor Insulation [9],              ! Name
  MediumRough,                            ! Roughness
  0.30419,                                ! Thickness {m}
  0.049,                                  ! Conductivity {W/m-K}
  265,                                    ! Density {kg/m3}
  836.8,                                  ! Specific Heat {J/kg-K}
  0.9,                                    ! Thermal Absorptance
  0.7,                                    ! Solar Absorptance
  0.7;                                    ! Visible Absorptance

OS:ComponentCost:LineItem,
  {fc6b0910-9397-490c-bb46-237afa4da377}, ! Handle
  AEDG SHC Nonres 6B Attic Floor,         ! Name
  ,                                       ! Type
  Construction,                           ! Line Item Type
  AEDG SHC Nonres 6B Attic Floor,         ! Item Name
  ,                                       ! Object End Use Key
  ,                                       ! Quantity {dimensionless}
  0,                                      ! Material Cost {$}
  CostPerArea;                            ! Material Cost Units

