
! 
OS:Version,
  {8503bb35-3288-4176-9c41-752f3d976c4b}, !- Handle
  1.13.0;                                 !- Version Identifier


! 
OS:Material,
  {0fddf682-58f0-45dc-aa9f-482737098945}, !- Handle
  Aislamiento: SATE
WEBER: weber.therm placa EPS grafito 100 (0.100 m)
R: 3.1 m2K/W,                             !- Name
  MediumRough,                                 !- Roughness
  0.1,                                    !- Thickness {m}
  0.032,                                    !- Conductivity {W/m-K}
  15.0,                                    !- Density {kg/m3}
  800.0,                                    !- Specific Heat {J/kg-K}
  0.9,                                    !- Thermal Absorptance
  0.6,                                    !- Solar Absorptance
  0.6;                                    !- Visible Absorptance

