
OS:Version,
  {d40febe7-018a-4b15-9e6e-c29fcdffac41}, ! Handle
  0.9.3;                                  ! Version Identifier

OS:Material,
  {6b3255aa-3654-4be8-8137-20972f3ce443}, ! Handle
  8IN Concrete HW,                        ! Name
  MediumRough,                            ! Roughness
  0.2033,                                 ! Thickness {m}
  1.7296,                                 ! Conductivity {W/m-K}
  2243,                                   ! Density {kg/m3}
  837,                                    ! Specific Heat {J/kg-K}
  0.9,                                    ! Thermal Absorptance
  0.65,                                   ! Solar Absorptance
  0.65;                                   ! Visible Absorptance

OS:Construction,
  {9a2f12e2-73e2-4733-b84b-a17ba7cc7732}, ! Handle
  90.1-1999 Nonres B10 Ext Wall Mass,     ! Name
  ,                                       ! Surface Rendering Name
  {6d88dc97-54bd-4032-9fa8-24b160a91637}, ! Layer 1
  {6b3255aa-3654-4be8-8137-20972f3ce443}, ! Layer 2
  {9c4b0995-ee4b-4edd-ac42-71e41797ed8d}, ! Layer 3
  {81f2f048-0cab-443a-90ba-5a0653c1e6c2}; ! Layer 4

OS:Material,
  {6d88dc97-54bd-4032-9fa8-24b160a91637}, ! Handle
  1IN Stucco,                             ! Name
  Smooth,                                 ! Roughness
  0.0253,                                 ! Thickness {m}
  0.6918,                                 ! Conductivity {W/m-K}
  1858,                                   ! Density {kg/m3}
  837,                                    ! Specific Heat {J/kg-K}
  0.9,                                    ! Thermal Absorptance
  0.92,                                   ! Solar Absorptance
  0.92;                                   ! Visible Absorptance

OS:Material,
  {9c4b0995-ee4b-4edd-ac42-71e41797ed8d}, ! Handle
  Wall Insulation [4],                    ! Name
  MediumRough,                            ! Roughness
  0.0338606,                              ! Thickness {m}
  0.0432,                                 ! Conductivity {W/m-K}
  91,                                     ! Density {kg/m3}
  837,                                    ! Specific Heat {J/kg-K}
  0.9,                                    ! Thermal Absorptance
  0.5,                                    ! Solar Absorptance
  0.5;                                    ! Visible Absorptance

OS:Material,
  {81f2f048-0cab-443a-90ba-5a0653c1e6c2}, ! Handle
  1/2IN Gypsum,                           ! Name
  Smooth,                                 ! Roughness
  0.01271,                                ! Thickness {m}
  0.16,                                   ! Conductivity {W/m-K}
  784.9,                                  ! Density {kg/m3}
  830,                                    ! Specific Heat {J/kg-K}
  0.9,                                    ! Thermal Absorptance
  0.92,                                   ! Solar Absorptance
  0.92;                                   ! Visible Absorptance

OS:ComponentCost:LineItem,
  {ebd5344b-261e-4e1b-8abb-e24564d8fbc4}, ! Handle
  90.1-1999 Nonres B10 Ext Wall Mass,     ! Name
  ,                                       ! Type
  Construction,                           ! Line Item Type
  90.1-1999 Nonres B10 Ext Wall Mass,     ! Item Name
  ,                                       ! Object End Use Key
  ,                                       ! Quantity {dimensionless}
  58.897,                                 ! Material Cost {$}
  CostPerArea;                            ! Material Cost Units

