
OS:Version,
  {44ad57e9-badd-4bb1-a3a8-277b31813d77}, ! Handle
  0.9.3;                                  ! Version Identifier

OS:Construction,
  {b7d65d63-233d-4cf2-820e-4aa41d2207ce}, ! Handle
  90.1 Windows Window Fixed 2621 Vnl-Clr-Ins-ClrPye, ! Name
  ,                                       ! Surface Rendering Name
  {94ad2a53-6c03-45cf-826c-bb1c073ea955}; ! Layer 1

OS:WindowMaterial:Glazing,
  {94ad2a53-6c03-45cf-826c-bb1c073ea955}, ! Handle
  Theoretical Glass [282],                ! Name
  SpectralAverage,                        ! Optical Data Type
  ,                                       ! Window Glass Spectral Data Set Name
  0.003,                                  ! Thickness {m}
  0.58483,                                ! Solar Transmittance at Normal Incidence
  0.36517,                                ! Front Side Solar Reflectance at Normal Incidence
  0.36517,                                ! Back Side Solar Reflectance at Normal Incidence
  0.629707,                               ! Visible Transmittance at Normal Incidence
  0.320293,                               ! Front Side Visible Reflectance at Normal Incidence
  0.320293,                               ! Back Side Visible Reflectance at Normal Incidence
  0,                                      ! Infrared Transmittance at Normal Incidence
  0.9,                                    ! Front Side Infrared Hemispherical Emissivity
  0.9,                                    ! Back Side Infrared Hemispherical Emissivity
  0.0088199;                              ! Conductivity {W/m-K}

OS:ComponentCost:LineItem,
  {bd04c170-19f2-4f30-9b44-8fd0af051255}, ! Handle
  90.1 Windows Window Fixed 2621 Vnl-Clr-Ins-ClrPye, ! Name
  ,                                       ! Type
  Construction,                           ! Line Item Type
  90.1 Windows Window Fixed 2621 Vnl-Clr-Ins-ClrPye, ! Item Name
  ,                                       ! Object End Use Key
  ,                                       ! Quantity {dimensionless}
  0,                                      ! Material Cost {$}
  CostPerArea;                            ! Material Cost Units

