
OS:Version,
  {791b7988-3257-4fbb-97c2-45ab4d4bc8fd}, ! Handle
  0.9.3;                                  ! Version Identifier

OS:Material,
  {54218538-8f0d-4e49-a822-cc5cbe142307}, ! Handle
  Metal Roofing,                          ! Name
  MediumSmooth,                           ! Roughness
  0.001524,                               ! Thickness {m}
  45.006,                                 ! Conductivity {W/m-K}
  7680,                                   ! Density {kg/m3}
  418.4,                                  ! Specific Heat {J/kg-K}
  0.9,                                    ! Thermal Absorptance
  0.7,                                    ! Solar Absorptance
  0.3;                                    ! Visible Absorptance

OS:Material,
  {0af75c44-96d7-4688-a1fd-1f7fc0280007}, ! Handle
  Roof Insulation [66],                   ! Name
  MediumRough,                            ! Roughness
  0.0947397,                              ! Thickness {m}
  0.049,                                  ! Conductivity {W/m-K}
  265,                                    ! Density {kg/m3}
  836.8,                                  ! Specific Heat {J/kg-K}
  0.9,                                    ! Thermal Absorptance
  0.7,                                    ! Solar Absorptance
  0.7;                                    ! Visible Absorptance

OS:ComponentCost:LineItem,
  {2b77e182-ac66-4fa4-9afc-30e036591652}, ! Handle
  90.1 Constructions Roof Metal Building R-13.0, ! Name
  ,                                       ! Type
  Construction,                           ! Line Item Type
  90.1 Constructions Roof Metal Building R-13.0, ! Item Name
  ,                                       ! Object End Use Key
  ,                                       ! Quantity {dimensionless}
  36.589,                                 ! Material Cost {$}
  CostPerArea;                            ! Material Cost Units

OS:Construction,
  {46264ab8-cba8-4383-bfab-71661ebc0700}, ! Handle
  90.1 Constructions Roof Metal Building R-13.0, ! Name
  ,                                       ! Surface Rendering Name
  {54218538-8f0d-4e49-a822-cc5cbe142307}, ! Layer 1
  {0af75c44-96d7-4688-a1fd-1f7fc0280007}; ! Layer 2

