
OS:Version,
  {37dd576c-e21f-4d68-a826-107e406c1022}, ! Handle
  0.9.3;                                  ! Version Identifier

OS:Material,
  {eedfd57d-ab24-4cde-afc0-a867c76223bc}, ! Handle
  Roof Membrane,                          ! Name
  VeryRough,                              ! Roughness
  0.0095,                                 ! Thickness {m}
  0.16,                                   ! Conductivity {W/m-K}
  1121.29,                                ! Density {kg/m3}
  1460,                                   ! Specific Heat {J/kg-K}
  0.9,                                    ! Thermal Absorptance
  0.7,                                    ! Solar Absorptance
  0.7;                                    ! Visible Absorptance

OS:Material,
  {2961a000-313d-4710-bccc-b8900fd3159b}, ! Handle
  Metal Decking,                          ! Name
  MediumSmooth,                           ! Roughness
  0.001524,                               ! Thickness {m}
  45.006,                                 ! Conductivity {W/m-K}
  7680,                                   ! Density {kg/m3}
  418.4,                                  ! Specific Heat {J/kg-K}
  0.9,                                    ! Thermal Absorptance
  0.7,                                    ! Solar Absorptance
  0.3;                                    ! Visible Absorptance

OS:Construction,
  {d478dedf-3f28-4a0b-b91d-1e66860b5eed}, ! Handle
  189.1-2009 Nonres 8A Roof IEAD,         ! Name
  ,                                       ! Surface Rendering Name
  {eedfd57d-ab24-4cde-afc0-a867c76223bc}, ! Layer 1
  {c99887e3-ffd6-4ce1-a6ba-52fa6fe477f7}, ! Layer 2
  {2961a000-313d-4710-bccc-b8900fd3159b}; ! Layer 3

OS:Material,
  {c99887e3-ffd6-4ce1-a6ba-52fa6fe477f7}, ! Handle
  Roof Insulation [26],                   ! Name
  MediumRough,                            ! Roughness
  0.294086,                               ! Thickness {m}
  0.049,                                  ! Conductivity {W/m-K}
  265,                                    ! Density {kg/m3}
  836.8,                                  ! Specific Heat {J/kg-K}
  0.9,                                    ! Thermal Absorptance
  0.7,                                    ! Solar Absorptance
  0.7;                                    ! Visible Absorptance

OS:ComponentCost:LineItem,
  {c4c9aa0d-f646-48a1-b222-9618f3b1babc}, ! Handle
  189.1-2009 Nonres 8A Roof IEAD,         ! Name
  ,                                       ! Type
  Construction,                           ! Line Item Type
  189.1-2009 Nonres 8A Roof IEAD,         ! Item Name
  ,                                       ! Object End Use Key
  ,                                       ! Quantity {dimensionless}
  64.441,                                 ! Material Cost {$}
  CostPerArea;                            ! Material Cost Units

