
OS:Version,
  {158424a3-3427-4a3c-8bae-4858296a8186}, ! Handle
  0.9.3;                                  ! Version Identifier

OS:Construction,
  {7d6f8627-19d5-4a69-a625-244d311590a7}, ! Handle
  189.1-2009 Nonres 8A Roof IEAD,         ! Name
  ,                                       ! Surface Rendering Name
  {9ea5cce3-a31d-4237-aa2f-a4731d46bafe}, ! Layer 1
  {87d83570-9bad-4b8f-97e9-34acb2f4f1b4}, ! Layer 2
  {49251b52-43d3-4678-90ea-edacbaf4d2c4}; ! Layer 3

OS:Material,
  {9ea5cce3-a31d-4237-aa2f-a4731d46bafe}, ! Handle
  Roof Membrane,                          ! Name
  VeryRough,                              ! Roughness
  0.0095,                                 ! Thickness {m}
  0.16,                                   ! Conductivity {W/m-K}
  1121.29,                                ! Density {kg/m3}
  1460,                                   ! Specific Heat {J/kg-K}
  0.9,                                    ! Thermal Absorptance
  0.7,                                    ! Solar Absorptance
  0.7;                                    ! Visible Absorptance

OS:Material,
  {87d83570-9bad-4b8f-97e9-34acb2f4f1b4}, ! Handle
  Roof Insulation [26],                   ! Name
  MediumRough,                            ! Roughness
  0.294086,                               ! Thickness {m}
  0.049,                                  ! Conductivity {W/m-K}
  265,                                    ! Density {kg/m3}
  836.8,                                  ! Specific Heat {J/kg-K}
  0.9,                                    ! Thermal Absorptance
  0.7,                                    ! Solar Absorptance
  0.7;                                    ! Visible Absorptance

OS:Material,
  {49251b52-43d3-4678-90ea-edacbaf4d2c4}, ! Handle
  Metal Decking,                          ! Name
  MediumSmooth,                           ! Roughness
  0.001524,                               ! Thickness {m}
  45.006,                                 ! Conductivity {W/m-K}
  7680,                                   ! Density {kg/m3}
  418.4,                                  ! Specific Heat {J/kg-K}
  0.9,                                    ! Thermal Absorptance
  0.7,                                    ! Solar Absorptance
  0.3;                                    ! Visible Absorptance

OS:ComponentCost:LineItem,
  {fa6b439f-3f8d-41d6-9838-75e7eb866b06}, ! Handle
  189.1-2009 Nonres 8A Roof IEAD,         ! Name
  ,                                       ! Type
  Construction,                           ! Line Item Type
  189.1-2009 Nonres 8A Roof IEAD,         ! Item Name
  ,                                       ! Object End Use Key
  ,                                       ! Quantity {dimensionless}
  64.441,                                 ! Material Cost {$}
  CostPerArea;                            ! Material Cost Units

OS:ComponentData,
  {7a4507a9-4afb-43a7-8dce-b9f8a1bf11ec}, ! Handle
  Component Data 1,                       ! Name
  {cf79b854-6f16-40c9-aa20-dc52d6cefc4d}, ! UUID
  {0b65fe3d-d901-4d84-b03f-a8888fe9bc53}, ! Version UUID
  1363980954,                             ! Creation Timestamp
  1363980954,                             ! Version Timestamp
  {7d6f8627-19d5-4a69-a625-244d311590a7}, ! Name of Object 1
  {9ea5cce3-a31d-4237-aa2f-a4731d46bafe}, ! Name of Object 2
  {87d83570-9bad-4b8f-97e9-34acb2f4f1b4}, ! Name of Object 3
  {49251b52-43d3-4678-90ea-edacbaf4d2c4}, ! Name of Object 4
  {fa6b439f-3f8d-41d6-9838-75e7eb866b06}; ! Name of Object 5

