
OS:Version,
  {a0b61ea6-91e6-4f8a-81c2-4cd39697a6fd}, ! Handle
  0.9.3;                                  ! Version Identifier

OS:ComponentCost:LineItem,
  {57d76f87-d220-41b6-85ad-ba42edfe7548}, ! Handle
  Title 24-2008 Nonres 13 Ext Slab Unheated - 4in Slab with Carpet, ! Name
  ,                                       ! Type
  Construction,                           ! Line Item Type
  Title 24-2008 Nonres 13 Ext Slab Unheated - 4in Slab with Carpet, ! Item Name
  ,                                       ! Object End Use Key
  ,                                       ! Quantity {dimensionless}
  45.52,                                  ! Material Cost {$}
  CostPerArea;                            ! Material Cost Units

OS:Construction,
  {3afeb464-a65a-49ff-a493-3b4170306992}, ! Handle
  Title 24-2008 Nonres 13 Ext Slab Unheated - 4in Slab with Carpet, ! Name
  ,                                       ! Surface Rendering Name
  {94dc337e-b574-4030-afc1-6caceaa661a5}, ! Layer 1
  {749278bb-75a4-42e1-8005-2dca60c1f180}; ! Layer 2

OS:Material,
  {94dc337e-b574-4030-afc1-6caceaa661a5}, ! Handle
  MAT-CC05 4 HW CONCRETE,                 ! Name
  Rough,                                  ! Roughness
  0.1016,                                 ! Thickness {m}
  1.311,                                  ! Conductivity {W/m-K}
  2240,                                   ! Density {kg/m3}
  836.8,                                  ! Specific Heat {J/kg-K}
  0.9,                                    ! Thermal Absorptance
  0.7,                                    ! Solar Absorptance
  0.7;                                    ! Visible Absorptance

OS:Material:NoMass,
  {749278bb-75a4-42e1-8005-2dca60c1f180}, ! Handle
  CP02 CARPET PAD,                        ! Name
  VeryRough,                              ! Roughness
  0.21648,                                ! Thermal Resistance {m2-K/W}
  0.9,                                    ! Thermal Absorptance
  0.7,                                    ! Solar Absorptance
  0.8;                                    ! Visible Absorptance

