
OS:Version,
  {a2c68d9b-a54b-43fb-9cdb-9e7c8497aeec}, ! Handle
  0.9.3;                                  ! Version Identifier

OS:Construction,
  {f5416a79-0222-461f-833c-c4a10f687c24}, ! Handle
  90.1-2007 Nonres 1A Exposed Floor Mass, ! Name
  ,                                       ! Surface Rendering Name
  {40fc67ec-b400-467b-b278-f63ffa7395cc}, ! Layer 1
  {d9c49b45-a5e7-4bf1-b279-a1938ae5b97f}; ! Layer 2

OS:Material,
  {40fc67ec-b400-467b-b278-f63ffa7395cc}, ! Handle
  MAT-CC05 8 HW CONCRETE,                 ! Name
  Rough,                                  ! Roughness
  0.20321,                                ! Thickness {m}
  1.311,                                  ! Conductivity {W/m-K}
  2240,                                   ! Density {kg/m3}
  836.8,                                  ! Specific Heat {J/kg-K}
  0.9,                                    ! Thermal Absorptance
  0.7,                                    ! Solar Absorptance
  0.7;                                    ! Visible Absorptance

OS:Material:NoMass,
  {d9c49b45-a5e7-4bf1-b279-a1938ae5b97f}, ! Handle
  CP02 CARPET PAD,                        ! Name
  VeryRough,                              ! Roughness
  0.21648,                                ! Thermal Resistance {m2-K/W}
  0.9,                                    ! Thermal Absorptance
  0.7,                                    ! Solar Absorptance
  0.8;                                    ! Visible Absorptance

OS:ComponentCost:LineItem,
  {7b723000-e8f5-4aad-bcbb-37c528b06afe}, ! Handle
  90.1-2007 Nonres 1A Exposed Floor Mass, ! Name
  ,                                       ! Type
  Construction,                           ! Line Item Type
  90.1-2007 Nonres 1A Exposed Floor Mass, ! Item Name
  ,                                       ! Object End Use Key
  ,                                       ! Quantity {dimensionless}
  39.18,                                  ! Material Cost {$}
  CostPerArea;                            ! Material Cost Units

