
OS:Version,
  {68914f4d-b8a0-4061-b997-55585560c67f}, ! Handle
  0.9.3;                                  ! Version Identifier

OS:ComponentCost:LineItem,
  {7ec8de83-70a5-4ba3-ae3c-e252abd7d3ee}, ! Handle
  90.1-2001 Res B4 Ext Wall Metal Building, ! Name
  ,                                       ! Type
  Construction,                           ! Line Item Type
  90.1-2001 Res B4 Ext Wall Metal Building, ! Item Name
  ,                                       ! Object End Use Key
  ,                                       ! Quantity {dimensionless}
  98.719,                                 ! Material Cost {$}
  CostPerArea;                            ! Material Cost Units

OS:Material,
  {928d6e98-7bab-4940-bdc5-6367fe29378e}, ! Handle
  Metal Siding,                           ! Name
  Smooth,                                 ! Roughness
  0.0015,                                 ! Thickness {m}
  44.96,                                  ! Conductivity {W/m-K}
  7688.86,                                ! Density {kg/m3}
  410,                                    ! Specific Heat {J/kg-K}
  0.9,                                    ! Thermal Absorptance
  0.2,                                    ! Solar Absorptance
  0.2;                                    ! Visible Absorptance

OS:Material,
  {65339d4d-d04c-4f04-a1eb-d4cb782c5ad3}, ! Handle
  Wall Insulation [3],                    ! Name
  MediumRough,                            ! Roughness
  0.0541893,                              ! Thickness {m}
  0.045,                                  ! Conductivity {W/m-K}
  265,                                    ! Density {kg/m3}
  836.8,                                  ! Specific Heat {J/kg-K}
  0.9,                                    ! Thermal Absorptance
  0.7,                                    ! Solar Absorptance
  0.7;                                    ! Visible Absorptance

OS:Material,
  {967db065-1615-4e56-843d-3b5a9144ed2b}, ! Handle
  1/2IN Gypsum,                           ! Name
  Smooth,                                 ! Roughness
  0.01271,                                ! Thickness {m}
  0.16,                                   ! Conductivity {W/m-K}
  784.9,                                  ! Density {kg/m3}
  830,                                    ! Specific Heat {J/kg-K}
  0.9,                                    ! Thermal Absorptance
  0.92,                                   ! Solar Absorptance
  0.92;                                   ! Visible Absorptance

OS:Construction,
  {ed9c08a0-f503-4e28-ba46-38428542a4b2}, ! Handle
  90.1-2001 Res B4 Ext Wall Metal Building, ! Name
  ,                                       ! Surface Rendering Name
  {928d6e98-7bab-4940-bdc5-6367fe29378e}, ! Layer 1
  {65339d4d-d04c-4f04-a1eb-d4cb782c5ad3}, ! Layer 2
  {967db065-1615-4e56-843d-3b5a9144ed2b}; ! Layer 3

