
OS:Version,
  {0f0dadde-c2b0-4fe5-961d-b1f778c15695}, ! Handle
  0.9.3;                                  ! Version Identifier

OS:Construction,
  {957f4179-112e-4baf-90ab-e8d02ac14a76}, ! Handle
  Title 24-2008 Nonres 14 Roof IEAD,      ! Name
  ,                                       ! Surface Rendering Name
  {0273b3d5-c227-467f-9a23-9106b698f271}, ! Layer 1
  {6689f0b1-e6f2-432f-a40b-a04c547ef1fe}, ! Layer 2
  {313eacb9-049b-46f9-bae7-bf0b584beeba}; ! Layer 3

OS:Material,
  {0273b3d5-c227-467f-9a23-9106b698f271}, ! Handle
  Roof Membrane [2],                      ! Name
  VeryRough,                              ! Roughness
  0.0095,                                 ! Thickness {m}
  0.16,                                   ! Conductivity {W/m-K}
  1121.29,                                ! Density {kg/m3}
  1460,                                   ! Specific Heat {J/kg-K}
  0.9,                                    ! Thermal Absorptance
  0.7,                                    ! Solar Absorptance
  0.85;                                   ! Visible Absorptance

OS:Material,
  {6689f0b1-e6f2-432f-a40b-a04c547ef1fe}, ! Handle
  Roof Insulation [31],                   ! Name
  MediumRough,                            ! Roughness
  0.209546,                               ! Thickness {m}
  0.049,                                  ! Conductivity {W/m-K}
  265,                                    ! Density {kg/m3}
  836.8,                                  ! Specific Heat {J/kg-K}
  0.9,                                    ! Thermal Absorptance
  0.7,                                    ! Solar Absorptance
  0.7;                                    ! Visible Absorptance

OS:Material,
  {313eacb9-049b-46f9-bae7-bf0b584beeba}, ! Handle
  Metal Decking,                          ! Name
  MediumSmooth,                           ! Roughness
  0.001524,                               ! Thickness {m}
  45.006,                                 ! Conductivity {W/m-K}
  7680,                                   ! Density {kg/m3}
  418.4,                                  ! Specific Heat {J/kg-K}
  0.9,                                    ! Thermal Absorptance
  0.7,                                    ! Solar Absorptance
  0.3;                                    ! Visible Absorptance

OS:ComponentCost:LineItem,
  {45f7a1c9-d004-4bbb-8302-e9d7983ff7d8}, ! Handle
  Title 24-2008 Nonres 14 Roof IEAD,      ! Name
  ,                                       ! Type
  Construction,                           ! Line Item Type
  Title 24-2008 Nonres 14 Roof IEAD,      ! Item Name
  ,                                       ! Object End Use Key
  ,                                       ! Quantity {dimensionless}
  56.579,                                 ! Material Cost {$}
  CostPerArea;                            ! Material Cost Units

