
OS:Version,
  {f8ca422f-30ff-4fdd-872d-19cde6959699}, ! Handle
  0.9.3;                                  ! Version Identifier

OS:WindowMaterial:Glazing,
  {ed951e75-266a-40fc-83ce-61d284e2d96a}, ! Handle
  Theoretical Glass [221],                ! Name
  SpectralAverage,                        ! Optical Data Type
  ,                                       ! Window Glass Spectral Data Set Name
  0.003,                                  ! Thickness {m}
  0.429551,                               ! Solar Transmittance at Normal Incidence
  0.520449,                               ! Front Side Solar Reflectance at Normal Incidence
  0.520449,                               ! Back Side Solar Reflectance at Normal Incidence
  0.450308,                               ! Visible Transmittance at Normal Incidence
  0.499692,                               ! Front Side Visible Reflectance at Normal Incidence
  0.499692,                               ! Back Side Visible Reflectance at Normal Incidence
  0,                                      ! Infrared Transmittance at Normal Incidence
  0.9,                                    ! Front Side Infrared Hemispherical Emissivity
  0.9,                                    ! Back Side Infrared Hemispherical Emissivity
  0.00893994;                             ! Conductivity {W/m-K}

OS:Construction,
  {22f796a3-8587-42ac-9e8e-3eac9fcbd4c7}, ! Handle
  189.1-2009 Res 8A Window Metal framing all other, ! Name
  ,                                       ! Surface Rendering Name
  {ed951e75-266a-40fc-83ce-61d284e2d96a}; ! Layer 1

OS:ComponentCost:LineItem,
  {bff9eee4-1437-4f55-8ffd-22176d1d37c2}, ! Handle
  189.1-2009 Res 8A Window Metal framing all other, ! Name
  ,                                       ! Type
  Construction,                           ! Line Item Type
  189.1-2009 Res 8A Window Metal framing all other, ! Item Name
  ,                                       ! Object End Use Key
  ,                                       ! Quantity {dimensionless}
  508.362,                                ! Material Cost {$}
  CostPerArea;                            ! Material Cost Units

