
OS:Version,
  {42a6fecf-20f9-4259-bc8f-7bfb8651a956}, ! Handle
  0.9.3;                                  ! Version Identifier

OS:Construction,
  {3d4d3e50-bdc6-4985-b462-ba4a3145df73}, ! Handle
  189.1-2009 Res 8A Window Metal framing all other, ! Name
  ,                                       ! Surface Rendering Name
  {a3d7eed6-c71e-4006-850f-2424993daaa7}; ! Layer 1

OS:WindowMaterial:Glazing,
  {a3d7eed6-c71e-4006-850f-2424993daaa7}, ! Handle
  Theoretical Glass [221],                ! Name
  SpectralAverage,                        ! Optical Data Type
  ,                                       ! Window Glass Spectral Data Set Name
  0.003,                                  ! Thickness {m}
  0.429551,                               ! Solar Transmittance at Normal Incidence
  0.520449,                               ! Front Side Solar Reflectance at Normal Incidence
  0.520449,                               ! Back Side Solar Reflectance at Normal Incidence
  0.450308,                               ! Visible Transmittance at Normal Incidence
  0.499692,                               ! Front Side Visible Reflectance at Normal Incidence
  0.499692,                               ! Back Side Visible Reflectance at Normal Incidence
  0,                                      ! Infrared Transmittance at Normal Incidence
  0.9,                                    ! Front Side Infrared Hemispherical Emissivity
  0.9,                                    ! Back Side Infrared Hemispherical Emissivity
  0.00893994;                             ! Conductivity {W/m-K}

OS:ComponentCost:LineItem,
  {6a51c8cc-dd29-40f7-a1f8-e6c1e98d9b41}, ! Handle
  189.1-2009 Res 8A Window Metal framing all other, ! Name
  ,                                       ! Type
  Construction,                           ! Line Item Type
  189.1-2009 Res 8A Window Metal framing all other, ! Item Name
  ,                                       ! Object End Use Key
  ,                                       ! Quantity {dimensionless}
  508.362,                                ! Material Cost {$}
  CostPerArea;                            ! Material Cost Units

OS:ComponentData,
  {35d6da54-72bb-4fb0-91f2-88f3185e4df6}, ! Handle
  Component Data 1,                       ! Name
  {36396948-e332-4047-8983-98769893962d}, ! UUID
  {2355444a-36f4-4d65-90c8-f932995ab457}, ! Version UUID
  1363980990,                             ! Creation Timestamp
  1363980990,                             ! Version Timestamp
  {3d4d3e50-bdc6-4985-b462-ba4a3145df73}, ! Name of Object 1
  {a3d7eed6-c71e-4006-850f-2424993daaa7}, ! Name of Object 2
  {6a51c8cc-dd29-40f7-a1f8-e6c1e98d9b41}; ! Name of Object 3

