
OS:Version,
  {041f0580-05c7-43b5-abef-dffd71a3b5b0}, ! Handle
  0.9.3;                                  ! Version Identifier

OS:Construction,
  {99fbed2e-9a73-49d9-b0b5-85cdd1275c77}, ! Handle
  189.1-2009 Nonres 8A Ext Wall Steel-Framed, ! Name
  ,                                       ! Surface Rendering Name
  {8052066b-c5b1-4e99-8525-616202d565ab}, ! Layer 1
  {beb8af22-43d0-4a99-9a77-d8fef26e36fd}, ! Layer 2
  {b3848d37-adaa-474c-b842-5deb4d888bf8}; ! Layer 3

OS:Material:NoMass,
  {8052066b-c5b1-4e99-8525-616202d565ab}, ! Handle
  MAT-SHEATH,                             ! Name
  Rough,                                  ! Roughness
  0.36256,                                ! Thermal Resistance {m2-K/W}
  0.9,                                    ! Thermal Absorptance
  0.7,                                    ! Solar Absorptance
  0.7;                                    ! Visible Absorptance

OS:Material,
  {beb8af22-43d0-4a99-9a77-d8fef26e36fd}, ! Handle
  Wall Insulation [39],                   ! Name
  MediumRough,                            ! Roughness
  0.118387,                               ! Thickness {m}
  0.045,                                  ! Conductivity {W/m-K}
  265,                                    ! Density {kg/m3}
  836.8,                                  ! Specific Heat {J/kg-K}
  0.9,                                    ! Thermal Absorptance
  0.7,                                    ! Solar Absorptance
  0.7;                                    ! Visible Absorptance

OS:Material,
  {b3848d37-adaa-474c-b842-5deb4d888bf8}, ! Handle
  1/2IN Gypsum,                           ! Name
  Smooth,                                 ! Roughness
  0.01271,                                ! Thickness {m}
  0.16,                                   ! Conductivity {W/m-K}
  784.9,                                  ! Density {kg/m3}
  830,                                    ! Specific Heat {J/kg-K}
  0.9,                                    ! Thermal Absorptance
  0.92,                                   ! Solar Absorptance
  0.92;                                   ! Visible Absorptance

OS:ComponentCost:LineItem,
  {4f7aec0b-a8ca-4eca-8252-85c0ff40eb18}, ! Handle
  189.1-2009 Nonres 8A Ext Wall Steel-Framed, ! Name
  ,                                       ! Type
  Construction,                           ! Line Item Type
  189.1-2009 Nonres 8A Ext Wall Steel-Framed, ! Item Name
  ,                                       ! Object End Use Key
  ,                                       ! Quantity {dimensionless}
  97.51,                                  ! Material Cost {$}
  CostPerArea;                            ! Material Cost Units

OS:ComponentData,
  {394ceaa3-ecc8-46a6-8140-24f0f1c784da}, ! Handle
  Component Data 1,                       ! Name
  {179cf713-0d4e-4c46-a19e-a4a1707b3f0b}, ! UUID
  {1ffaab6c-9ecb-454e-852d-beb1237ee7ca}, ! Version UUID
  1363980955,                             ! Creation Timestamp
  1363980955,                             ! Version Timestamp
  {99fbed2e-9a73-49d9-b0b5-85cdd1275c77}, ! Name of Object 1
  {8052066b-c5b1-4e99-8525-616202d565ab}, ! Name of Object 2
  {beb8af22-43d0-4a99-9a77-d8fef26e36fd}, ! Name of Object 3
  {b3848d37-adaa-474c-b842-5deb4d888bf8}, ! Name of Object 4
  {4f7aec0b-a8ca-4eca-8252-85c0ff40eb18}; ! Name of Object 5

