
OS:Version,
  {8147eafc-fc07-4fc3-b4c8-24a93657c1be}, ! Handle
  0.9.3;                                  ! Version Identifier

OS:ComponentCost:LineItem,
  {6fc77f02-35cb-4155-ac51-c21c7e12970a}, ! Handle
  189.1-2009 Nonres 8A Ext Wall Steel-Framed, ! Name
  ,                                       ! Type
  Construction,                           ! Line Item Type
  189.1-2009 Nonres 8A Ext Wall Steel-Framed, ! Item Name
  ,                                       ! Object End Use Key
  ,                                       ! Quantity {dimensionless}
  97.51,                                  ! Material Cost {$}
  CostPerArea;                            ! Material Cost Units

OS:Construction,
  {32393a59-691b-4208-890a-054fedac50ae}, ! Handle
  189.1-2009 Nonres 8A Ext Wall Steel-Framed, ! Name
  ,                                       ! Surface Rendering Name
  {fddd04a2-2d65-4c08-91d5-7ddbfff5aed0}, ! Layer 1
  {6511c527-25dd-4881-9f62-d1badd90d9c0}, ! Layer 2
  {acf87220-3371-464c-a8c7-896152a3c742}; ! Layer 3

OS:Material:NoMass,
  {fddd04a2-2d65-4c08-91d5-7ddbfff5aed0}, ! Handle
  MAT-SHEATH,                             ! Name
  Rough,                                  ! Roughness
  0.36256,                                ! Thermal Resistance {m2-K/W}
  0.9,                                    ! Thermal Absorptance
  0.7,                                    ! Solar Absorptance
  0.7;                                    ! Visible Absorptance

OS:Material,
  {6511c527-25dd-4881-9f62-d1badd90d9c0}, ! Handle
  Wall Insulation [39],                   ! Name
  MediumRough,                            ! Roughness
  0.118387,                               ! Thickness {m}
  0.045,                                  ! Conductivity {W/m-K}
  265,                                    ! Density {kg/m3}
  836.8,                                  ! Specific Heat {J/kg-K}
  0.9,                                    ! Thermal Absorptance
  0.7,                                    ! Solar Absorptance
  0.7;                                    ! Visible Absorptance

OS:Material,
  {acf87220-3371-464c-a8c7-896152a3c742}, ! Handle
  1/2IN Gypsum,                           ! Name
  Smooth,                                 ! Roughness
  0.01271,                                ! Thickness {m}
  0.16,                                   ! Conductivity {W/m-K}
  784.9,                                  ! Density {kg/m3}
  830,                                    ! Specific Heat {J/kg-K}
  0.9,                                    ! Thermal Absorptance
  0.92,                                   ! Solar Absorptance
  0.92;                                   ! Visible Absorptance

