
OS:Version,
  {25288baa-3460-4770-8256-db5f6abc2c20}, ! Handle
  0.9.3;                                  ! Version Identifier

OS:Material,
  {20925430-a1b0-414b-a5e6-33cf017eb817}, ! Handle
  Roof Insulation [106],                  ! Name
  MediumRough,                            ! Roughness
  0.190659,                               ! Thickness {m}
  0.049,                                  ! Conductivity {W/m-K}
  265,                                    ! Density {kg/m3}
  836.8,                                  ! Specific Heat {J/kg-K}
  0.9,                                    ! Thermal Absorptance
  0.7,                                    ! Solar Absorptance
  0.7;                                    ! Visible Absorptance

OS:Material,
  {0baa2820-d1b5-401e-98d7-a63665cb3881}, ! Handle
  Wood Shingles [1],                      ! Name
  VeryRough,                              ! Roughness
  0.0178,                                 ! Thickness {m}
  0.115,                                  ! Conductivity {W/m-K}
  513,                                    ! Density {kg/m3}
  1255,                                   ! Specific Heat {J/kg-K}
  0.9,                                    ! Thermal Absorptance
  0.78,                                   ! Solar Absorptance
  0.85;                                   ! Visible Absorptance

OS:Material,
  {d089b6b4-0f89-4c63-afb0-ef13b21281bc}, ! Handle
  1/2IN Gypsum,                           ! Name
  Smooth,                                 ! Roughness
  0.01271,                                ! Thickness {m}
  0.16,                                   ! Conductivity {W/m-K}
  784.9,                                  ! Density {kg/m3}
  830,                                    ! Specific Heat {J/kg-K}
  0.9,                                    ! Thermal Absorptance
  0.92,                                   ! Solar Absorptance
  0.92;                                   ! Visible Absorptance

OS:ComponentCost:LineItem,
  {731be7b9-b0ed-4fe1-9aed-3d005e58de36}, ! Handle
  Title 24-2008 Nonres 13 Roof Attic and Other, ! Name
  ,                                       ! Type
  Construction,                           ! Line Item Type
  Title 24-2008 Nonres 13 Roof Attic and Other, ! Item Name
  ,                                       ! Object End Use Key
  ,                                       ! Quantity {dimensionless}
  33.009,                                 ! Material Cost {$}
  CostPerArea;                            ! Material Cost Units

OS:Material,
  {c3a8d549-c195-429f-9441-b3bef27d0924}, ! Handle
  1IN Wood Decking,                       ! Name
  MediumSmooth,                           ! Roughness
  0.0254,                                 ! Thickness {m}
  0.1211,                                 ! Conductivity {W/m-K}
  593,                                    ! Density {kg/m3}
  2510,                                   ! Specific Heat {J/kg-K}
  0.9,                                    ! Thermal Absorptance
  0.78,                                   ! Solar Absorptance
  0.78;                                   ! Visible Absorptance

OS:Construction,
  {bd1b9b5f-392e-4666-8049-dfa3241d06e3}, ! Handle
  Title 24-2008 Nonres 13 Roof Attic and Other, ! Name
  ,                                       ! Surface Rendering Name
  {0baa2820-d1b5-401e-98d7-a63665cb3881}, ! Layer 1
  {c3a8d549-c195-429f-9441-b3bef27d0924}, ! Layer 2
  {20925430-a1b0-414b-a5e6-33cf017eb817}, ! Layer 3
  {d089b6b4-0f89-4c63-afb0-ef13b21281bc}; ! Layer 4

