
OS:Version,
  {09111a5d-8f39-4b9b-b155-df6f629a3bb8}, ! Handle
  0.9.3;                                  ! Version Identifier

OS:Material,
  {4f1c583d-54b5-41ae-af57-cb0cecc2b4c3}, ! Handle
  1IN Stucco,                             ! Name
  Smooth,                                 ! Roughness
  0.0253,                                 ! Thickness {m}
  0.6918,                                 ! Conductivity {W/m-K}
  1858,                                   ! Density {kg/m3}
  837,                                    ! Specific Heat {J/kg-K}
  0.9,                                    ! Thermal Absorptance
  0.92,                                   ! Solar Absorptance
  0.92;                                   ! Visible Absorptance

OS:ComponentCost:LineItem,
  {fe9ec356-e076-4bf5-84a8-6ef0c4c1692b}, ! Handle
  Title 24-2008 Nonres 16 Ext Wall Mass,  ! Name
  ,                                       ! Type
  Construction,                           ! Line Item Type
  Title 24-2008 Nonres 16 Ext Wall Mass,  ! Item Name
  ,                                       ! Object End Use Key
  ,                                       ! Quantity {dimensionless}
  211.895,                                ! Material Cost {$}
  CostPerArea;                            ! Material Cost Units

OS:Material,
  {f833669b-36b2-40e2-9f08-db346af44cd9}, ! Handle
  1/2IN Gypsum,                           ! Name
  Smooth,                                 ! Roughness
  0.01271,                                ! Thickness {m}
  0.16,                                   ! Conductivity {W/m-K}
  784.9,                                  ! Density {kg/m3}
  830,                                    ! Specific Heat {J/kg-K}
  0.9,                                    ! Thermal Absorptance
  0.92,                                   ! Solar Absorptance
  0.92;                                   ! Visible Absorptance

OS:Material,
  {19363b82-9ced-4327-94a0-4c0ad1eb3632}, ! Handle
  Wall Insulation [158],                  ! Name
  MediumRough,                            ! Roughness
  0.0509,                                 ! Thickness {m}
  0.0432,                                 ! Conductivity {W/m-K}
  91,                                     ! Density {kg/m3}
  837,                                    ! Specific Heat {J/kg-K}
  0.9,                                    ! Thermal Absorptance
  0.5,                                    ! Solar Absorptance
  0.5;                                    ! Visible Absorptance

OS:Construction,
  {af0ae07f-04c4-4a8f-bf8f-a3cb018b3d67}, ! Handle
  Title 24-2008 Nonres 16 Ext Wall Mass,  ! Name
  ,                                       ! Surface Rendering Name
  {4f1c583d-54b5-41ae-af57-cb0cecc2b4c3}, ! Layer 1
  {d1a0e8a0-1916-4b39-a9fa-a4cde185fc1c}, ! Layer 2
  {19363b82-9ced-4327-94a0-4c0ad1eb3632}, ! Layer 3
  {f833669b-36b2-40e2-9f08-db346af44cd9}; ! Layer 4

OS:Material,
  {d1a0e8a0-1916-4b39-a9fa-a4cde185fc1c}, ! Handle
  8IN Concrete HW,                        ! Name
  MediumRough,                            ! Roughness
  0.2033,                                 ! Thickness {m}
  1.7296,                                 ! Conductivity {W/m-K}
  2243,                                   ! Density {kg/m3}
  837,                                    ! Specific Heat {J/kg-K}
  0.9,                                    ! Thermal Absorptance
  0.65,                                   ! Solar Absorptance
  0.65;                                   ! Visible Absorptance

