
OS:Version,
  {907a28b1-83aa-4505-b80d-20a13badc95a}, ! Handle
  0.9.3;                                  ! Version Identifier

OS:Construction,
  {a532c444-27fa-45e3-b8e2-99236ead7bdd}, ! Handle
  189.1-2009 Nonres 8A Window Metal framing entrance door, ! Name
  ,                                       ! Surface Rendering Name
  {560338bb-4a49-4d62-8262-5eac8ef67802}; ! Layer 1

OS:WindowMaterial:Glazing,
  {560338bb-4a49-4d62-8262-5eac8ef67802}, ! Handle
  Theoretical Glass [220],                ! Name
  SpectralAverage,                        ! Optical Data Type
  ,                                       ! Window Glass Spectral Data Set Name
  0.003,                                  ! Thickness {m}
  0.432524,                               ! Solar Transmittance at Normal Incidence
  0.517476,                               ! Front Side Solar Reflectance at Normal Incidence
  0.517476,                               ! Back Side Solar Reflectance at Normal Incidence
  0.450308,                               ! Visible Transmittance at Normal Incidence
  0.499692,                               ! Front Side Visible Reflectance at Normal Incidence
  0.499692,                               ! Back Side Visible Reflectance at Normal Incidence
  0,                                      ! Infrared Transmittance at Normal Incidence
  0.9,                                    ! Front Side Infrared Hemispherical Emissivity
  0.9,                                    ! Back Side Infrared Hemispherical Emissivity
  0.0336861;                              ! Conductivity {W/m-K}

OS:ComponentCost:LineItem,
  {b705f49a-562f-434d-8a87-0a2228c97e0b}, ! Handle
  189.1-2009 Nonres 8A Window Metal framing entrance door, ! Name
  ,                                       ! Type
  Construction,                           ! Line Item Type
  189.1-2009 Nonres 8A Window Metal framing entrance door, ! Item Name
  ,                                       ! Object End Use Key
  ,                                       ! Quantity {dimensionless}
  508.362,                                ! Material Cost {$}
  CostPerArea;                            ! Material Cost Units

