
OS:Version,
  {9844ebd7-92b5-49d4-925f-b2c3d0c50771}, !- Handle
  1.1.0;                                  !- Version Identifier

OS:Construction,
  {65e423e3-ef94-419c-a338-f545255498d3}, !- Handle
  Sgl Grey 3mm,                           !- Name
  ,                                       !- Surface Rendering Name
  {c2b13e5a-f9b0-412b-b885-a7018594dd2b}; !- Layer 1

OS:WindowMaterial:Glazing,
  {c2b13e5a-f9b0-412b-b885-a7018594dd2b}, !- Handle
  GREY 3MM,                               !- Name
  SpectralAverage,                        !- Optical Data Type
  ,                                       !- Window Glass Spectral Data Set Name
  0.003,                                  !- Thickness {m}
  0.626,                                  !- Solar Transmittance at Normal Incidence
  0.061,                                  !- Front Side Solar Reflectance at Normal Incidence
  0.061,                                  !- Back Side Solar Reflectance at Normal Incidence
  0.611,                                  !- Visible Transmittance at Normal Incidence
  0.061,                                  !- Front Side Visible Reflectance at Normal Incidence
  0.061,                                  !- Back Side Visible Reflectance at Normal Incidence
  0,                                      !- Infrared Transmittance at Normal Incidence
  0.84,                                   !- Front Side Infrared Hemispherical Emissivity
  0.84,                                   !- Back Side Infrared Hemispherical Emissivity
  0.9;                                    !- Conductivity {W/m-K}

