
OS:Version,
  {078bcad1-d83c-4bcb-ba12-cd5eab3719e9}, ! Handle
  0.9.3;                                  ! Version Identifier

OS:Material,
  {ba6ed665-bed8-4dfc-9108-17ed02cabb7d}, ! Handle
  1/2IN Gypsum,                           ! Name
  Smooth,                                 ! Roughness
  0.01271,                                ! Thickness {m}
  0.16,                                   ! Conductivity {W/m-K}
  784.9,                                  ! Density {kg/m3}
  830,                                    ! Specific Heat {J/kg-K}
  0.9,                                    ! Thermal Absorptance
  0.92,                                   ! Solar Absorptance
  0.92;                                   ! Visible Absorptance

OS:Construction,
  {bed40ef9-86ee-447a-b343-f93faa3556ce}, ! Handle
  90.1-2001 Res B8 Ext Wall Mass,         ! Name
  ,                                       ! Surface Rendering Name
  {2d8d2d31-42d3-4c43-9f31-85efdb28c36e}, ! Layer 1
  {282adaa8-dc7a-4b3c-9fbb-88a3f01dc7c2}, ! Layer 2
  {231f59b1-a7ab-454d-a87f-8a92a5a06bd5}, ! Layer 3
  {ba6ed665-bed8-4dfc-9108-17ed02cabb7d}; ! Layer 4

OS:Material,
  {2d8d2d31-42d3-4c43-9f31-85efdb28c36e}, ! Handle
  1IN Stucco,                             ! Name
  Smooth,                                 ! Roughness
  0.0253,                                 ! Thickness {m}
  0.6918,                                 ! Conductivity {W/m-K}
  1858,                                   ! Density {kg/m3}
  837,                                    ! Specific Heat {J/kg-K}
  0.9,                                    ! Thermal Absorptance
  0.92,                                   ! Solar Absorptance
  0.92;                                   ! Visible Absorptance

OS:Material,
  {282adaa8-dc7a-4b3c-9fbb-88a3f01dc7c2}, ! Handle
  8IN Concrete HW,                        ! Name
  MediumRough,                            ! Roughness
  0.2033,                                 ! Thickness {m}
  1.7296,                                 ! Conductivity {W/m-K}
  2243,                                   ! Density {kg/m3}
  837,                                    ! Specific Heat {J/kg-K}
  0.9,                                    ! Thermal Absorptance
  0.65,                                   ! Solar Absorptance
  0.65;                                   ! Visible Absorptance

OS:Material,
  {231f59b1-a7ab-454d-a87f-8a92a5a06bd5}, ! Handle
  Wall Insulation [4],                    ! Name
  MediumRough,                            ! Roughness
  0.0338606,                              ! Thickness {m}
  0.0432,                                 ! Conductivity {W/m-K}
  91,                                     ! Density {kg/m3}
  837,                                    ! Specific Heat {J/kg-K}
  0.9,                                    ! Thermal Absorptance
  0.5,                                    ! Solar Absorptance
  0.5;                                    ! Visible Absorptance

OS:ComponentCost:LineItem,
  {b941be64-8a41-423e-9295-4d7c6ac390be}, ! Handle
  90.1-2001 Res B8 Ext Wall Mass,         ! Name
  ,                                       ! Type
  Construction,                           ! Line Item Type
  90.1-2001 Res B8 Ext Wall Mass,         ! Item Name
  ,                                       ! Object End Use Key
  ,                                       ! Quantity {dimensionless}
  58.897,                                 ! Material Cost {$}
  CostPerArea;                            ! Material Cost Units

