
OS:Version,
  {ca7a3255-2f1e-4711-80d1-d77be8e2feab}, ! Handle
  0.9.3;                                  ! Version Identifier

OS:Construction,
  {f919d808-02be-43d0-8c42-6586ec97472c}, ! Handle
  90.1-1999 Nonres B13 Roof Attic and Other, ! Name
  ,                                       ! Surface Rendering Name
  {50edd997-5a4e-43e8-a01b-216a38206668}, ! Layer 1
  {3cabd322-5849-40a2-9862-2f1aa4d50fef}, ! Layer 2
  {bf22ae6f-45f0-4f0b-8158-c7beeb516ab0}, ! Layer 3
  {ad76368b-83fb-41cd-8a1a-0c2be0838d1b}; ! Layer 4

OS:Material,
  {50edd997-5a4e-43e8-a01b-216a38206668}, ! Handle
  Wood Shingles,                          ! Name
  VeryRough,                              ! Roughness
  0.0178,                                 ! Thickness {m}
  0.115,                                  ! Conductivity {W/m-K}
  513,                                    ! Density {kg/m3}
  1255,                                   ! Specific Heat {J/kg-K}
  0.9,                                    ! Thermal Absorptance
  0.78,                                   ! Solar Absorptance
  0.78;                                   ! Visible Absorptance

OS:Material,
  {3cabd322-5849-40a2-9862-2f1aa4d50fef}, ! Handle
  1IN Wood Decking,                       ! Name
  MediumSmooth,                           ! Roughness
  0.0254,                                 ! Thickness {m}
  0.1211,                                 ! Conductivity {W/m-K}
  593,                                    ! Density {kg/m3}
  2510,                                   ! Specific Heat {J/kg-K}
  0.9,                                    ! Thermal Absorptance
  0.78,                                   ! Solar Absorptance
  0.78;                                   ! Visible Absorptance

OS:Material,
  {bf22ae6f-45f0-4f0b-8158-c7beeb516ab0}, ! Handle
  Roof Insulation [2],                    ! Name
  MediumRough,                            ! Roughness
  0.221604,                               ! Thickness {m}
  0.049,                                  ! Conductivity {W/m-K}
  265,                                    ! Density {kg/m3}
  836.8,                                  ! Specific Heat {J/kg-K}
  0.9,                                    ! Thermal Absorptance
  0.7,                                    ! Solar Absorptance
  0.7;                                    ! Visible Absorptance

OS:Material,
  {ad76368b-83fb-41cd-8a1a-0c2be0838d1b}, ! Handle
  1/2IN Gypsum,                           ! Name
  Smooth,                                 ! Roughness
  0.01271,                                ! Thickness {m}
  0.16,                                   ! Conductivity {W/m-K}
  784.9,                                  ! Density {kg/m3}
  830,                                    ! Specific Heat {J/kg-K}
  0.9,                                    ! Thermal Absorptance
  0.92,                                   ! Solar Absorptance
  0.92;                                   ! Visible Absorptance

OS:ComponentCost:LineItem,
  {f97a54a2-9ea4-4150-a54b-585813992f3b}, ! Handle
  90.1-1999 Nonres B13 Roof Attic and Other, ! Name
  ,                                       ! Type
  Construction,                           ! Line Item Type
  90.1-1999 Nonres B13 Roof Attic and Other, ! Item Name
  ,                                       ! Object End Use Key
  ,                                       ! Quantity {dimensionless}
  33.39,                                  ! Material Cost {$}
  CostPerArea;                            ! Material Cost Units

