
OS:Version,
  {ae18912b-08ca-42ce-8178-51183c205a91}, ! Handle
  0.9.3;                                  ! Version Identifier

OS:Material,
  {665df7b1-783e-4918-b3ae-dcf9247444aa}, ! Handle
  1/2IN Gypsum,                           ! Name
  Smooth,                                 ! Roughness
  0.01271,                                ! Thickness {m}
  0.16,                                   ! Conductivity {W/m-K}
  784.9,                                  ! Density {kg/m3}
  830,                                    ! Specific Heat {J/kg-K}
  0.9,                                    ! Thermal Absorptance
  0.92,                                   ! Solar Absorptance
  0.92;                                   ! Visible Absorptance

OS:ComponentCost:LineItem,
  {ee6c0e0d-7f8e-4eb3-baa0-11420efc0dcc}, ! Handle
  Title 24-2008 Nonres 5 Ext Wall Metal Building, ! Name
  ,                                       ! Type
  Construction,                           ! Line Item Type
  Title 24-2008 Nonres 5 Ext Wall Metal Building, ! Item Name
  ,                                       ! Object End Use Key
  ,                                       ! Quantity {dimensionless}
  184.211,                                ! Material Cost {$}
  CostPerArea;                            ! Material Cost Units

OS:Material,
  {1bab941e-1513-4223-960f-c57e9f183f9e}, ! Handle
  Metal Siding,                           ! Name
  Smooth,                                 ! Roughness
  0.0015,                                 ! Thickness {m}
  44.96,                                  ! Conductivity {W/m-K}
  7688.86,                                ! Density {kg/m3}
  410,                                    ! Specific Heat {J/kg-K}
  0.9,                                    ! Thermal Absorptance
  0.2,                                    ! Solar Absorptance
  0.2;                                    ! Visible Absorptance

OS:Construction,
  {b7aa9ec2-bd62-4a3f-b109-90e254f5afb6}, ! Handle
  Title 24-2008 Nonres 5 Ext Wall Metal Building, ! Name
  ,                                       ! Surface Rendering Name
  {1bab941e-1513-4223-960f-c57e9f183f9e}, ! Layer 1
  {4c77259f-5ba4-4af7-929f-fe8c45b2c395}, ! Layer 2
  {665df7b1-783e-4918-b3ae-dcf9247444aa}; ! Layer 3

OS:Material,
  {4c77259f-5ba4-4af7-929f-fe8c45b2c395}, ! Handle
  Wall Insulation [159],                  ! Name
  MediumRough,                            ! Roughness
  0.0812,                                 ! Thickness {m}
  0.045,                                  ! Conductivity {W/m-K}
  265,                                    ! Density {kg/m3}
  836.8,                                  ! Specific Heat {J/kg-K}
  0.9,                                    ! Thermal Absorptance
  0.7,                                    ! Solar Absorptance
  0.7;                                    ! Visible Absorptance

