
OS:Version,
  {6f863071-946f-4384-af1d-e214d538cee5}, ! Handle
  0.9.3;                                  ! Version Identifier

OS:Construction,
  {515257a4-036d-4578-bb34-215bf6fc5b45}, ! Handle
  Title 24-2008 Nonres 5 Ext Wall Metal Building, ! Name
  ,                                       ! Surface Rendering Name
  {497aa06d-2388-4687-b257-8ae847146bec}, ! Layer 1
  {8ec4cef7-cafd-4a2e-92a2-c1d241b26e98}, ! Layer 2
  {a84b7303-6a9e-4359-8c20-db26f9cb1ffb}; ! Layer 3

OS:Material,
  {497aa06d-2388-4687-b257-8ae847146bec}, ! Handle
  Metal Siding,                           ! Name
  Smooth,                                 ! Roughness
  0.0015,                                 ! Thickness {m}
  44.96,                                  ! Conductivity {W/m-K}
  7688.86,                                ! Density {kg/m3}
  410,                                    ! Specific Heat {J/kg-K}
  0.9,                                    ! Thermal Absorptance
  0.2,                                    ! Solar Absorptance
  0.2;                                    ! Visible Absorptance

OS:Material,
  {8ec4cef7-cafd-4a2e-92a2-c1d241b26e98}, ! Handle
  Wall Insulation [159],                  ! Name
  MediumRough,                            ! Roughness
  0.0812,                                 ! Thickness {m}
  0.045,                                  ! Conductivity {W/m-K}
  265,                                    ! Density {kg/m3}
  836.8,                                  ! Specific Heat {J/kg-K}
  0.9,                                    ! Thermal Absorptance
  0.7,                                    ! Solar Absorptance
  0.7;                                    ! Visible Absorptance

OS:Material,
  {a84b7303-6a9e-4359-8c20-db26f9cb1ffb}, ! Handle
  1/2IN Gypsum,                           ! Name
  Smooth,                                 ! Roughness
  0.01271,                                ! Thickness {m}
  0.16,                                   ! Conductivity {W/m-K}
  784.9,                                  ! Density {kg/m3}
  830,                                    ! Specific Heat {J/kg-K}
  0.9,                                    ! Thermal Absorptance
  0.92,                                   ! Solar Absorptance
  0.92;                                   ! Visible Absorptance

OS:ComponentCost:LineItem,
  {03e60a3f-6926-4035-9b3b-15536b5a8b00}, ! Handle
  Title 24-2008 Nonres 5 Ext Wall Metal Building, ! Name
  ,                                       ! Type
  Construction,                           ! Line Item Type
  Title 24-2008 Nonres 5 Ext Wall Metal Building, ! Item Name
  ,                                       ! Object End Use Key
  ,                                       ! Quantity {dimensionless}
  184.211,                                ! Material Cost {$}
  CostPerArea;                            ! Material Cost Units

OS:ComponentData,
  {e64f83d3-bee5-44ae-b1b1-64521b3407f9}, ! Handle
  Component Data 1,                       ! Name
  {37d6021c-1c8b-46c1-9093-c8eee8836446}, ! UUID
  {b0b8921d-f863-4ae1-bdd4-01df90843bc7}, ! Version UUID
  1363982019,                             ! Creation Timestamp
  1363982019,                             ! Version Timestamp
  {515257a4-036d-4578-bb34-215bf6fc5b45}, ! Name of Object 1
  {497aa06d-2388-4687-b257-8ae847146bec}, ! Name of Object 2
  {8ec4cef7-cafd-4a2e-92a2-c1d241b26e98}, ! Name of Object 3
  {a84b7303-6a9e-4359-8c20-db26f9cb1ffb}, ! Name of Object 4
  {03e60a3f-6926-4035-9b3b-15536b5a8b00}; ! Name of Object 5

