
OS:Version,
  {35f5a7ca-e27f-4ff5-abc5-bb7b1db10316}, ! Handle
  0.9.3;                                  ! Version Identifier

OS:Construction,
  {fc80ccf7-d43a-44f2-9202-216aa210a009}, ! Handle
  90.1-2007 Res 7A Ext Wall Mass,         ! Name
  ,                                       ! Surface Rendering Name
  {db131e52-d67a-47fe-aba5-f0f3b2a5a849}, ! Layer 1
  {5fae9564-8727-4101-a6b2-27e6a363a8d8}, ! Layer 2
  {bfd2daca-a453-4181-ad34-6f349a8a5660}, ! Layer 3
  {3e7bc1d3-7624-41bc-bcc5-e6a202eddd68}; ! Layer 4

OS:Material,
  {db131e52-d67a-47fe-aba5-f0f3b2a5a849}, ! Handle
  1IN Stucco,                             ! Name
  Smooth,                                 ! Roughness
  0.0253,                                 ! Thickness {m}
  0.6918,                                 ! Conductivity {W/m-K}
  1858,                                   ! Density {kg/m3}
  837,                                    ! Specific Heat {J/kg-K}
  0.9,                                    ! Thermal Absorptance
  0.92,                                   ! Solar Absorptance
  0.92;                                   ! Visible Absorptance

OS:Material,
  {5fae9564-8727-4101-a6b2-27e6a363a8d8}, ! Handle
  8IN Concrete HW,                        ! Name
  MediumRough,                            ! Roughness
  0.2033,                                 ! Thickness {m}
  1.7296,                                 ! Conductivity {W/m-K}
  2243,                                   ! Density {kg/m3}
  837,                                    ! Specific Heat {J/kg-K}
  0.9,                                    ! Thermal Absorptance
  0.65,                                   ! Solar Absorptance
  0.65;                                   ! Visible Absorptance

OS:Material,
  {bfd2daca-a453-4181-ad34-6f349a8a5660}, ! Handle
  Wall Insulation [22],                   ! Name
  MediumRough,                            ! Roughness
  0.0905334,                              ! Thickness {m}
  0.0432,                                 ! Conductivity {W/m-K}
  91,                                     ! Density {kg/m3}
  837,                                    ! Specific Heat {J/kg-K}
  0.9,                                    ! Thermal Absorptance
  0.5,                                    ! Solar Absorptance
  0.5;                                    ! Visible Absorptance

OS:Material,
  {3e7bc1d3-7624-41bc-bcc5-e6a202eddd68}, ! Handle
  1/2IN Gypsum,                           ! Name
  Smooth,                                 ! Roughness
  0.01271,                                ! Thickness {m}
  0.16,                                   ! Conductivity {W/m-K}
  784.9,                                  ! Density {kg/m3}
  830,                                    ! Specific Heat {J/kg-K}
  0.9,                                    ! Thermal Absorptance
  0.92,                                   ! Solar Absorptance
  0.92;                                   ! Visible Absorptance

OS:ComponentCost:LineItem,
  {6fbc423c-d4ff-4ab9-862e-673c8f01202d}, ! Handle
  90.1-2007 Res 7A Ext Wall Mass,         ! Name
  ,                                       ! Type
  Construction,                           ! Line Item Type
  90.1-2007 Res 7A Ext Wall Mass,         ! Item Name
  ,                                       ! Object End Use Key
  ,                                       ! Quantity {dimensionless}
  70.26,                                  ! Material Cost {$}
  CostPerArea;                            ! Material Cost Units

