
OS:Version,
  {0c947e59-6bed-40dd-923f-e5a2b9040a27}, ! Handle
  0.9.3;                                  ! Version Identifier

OS:ComponentCost:LineItem,
  {7cc1a7c9-facc-4603-8da3-f03d02be622c}, ! Handle
  189.1-2009 Res 3A Window Metal framing curtainwall-storefront, ! Name
  ,                                       ! Type
  Construction,                           ! Line Item Type
  189.1-2009 Res 3A Window Metal framing curtainwall-storefront, ! Item Name
  ,                                       ! Object End Use Key
  ,                                       ! Quantity {dimensionless}
  577.118,                                ! Material Cost {$}
  CostPerArea;                            ! Material Cost Units

OS:Construction,
  {40f96c64-e3fe-4352-9c59-1706ab136fc1}, ! Handle
  189.1-2009 Res 3A Window Metal framing curtainwall-storefront, ! Name
  ,                                       ! Surface Rendering Name
  {6aa2e92b-6e1c-457c-a45e-8219c4390465}; ! Layer 1

OS:WindowMaterial:Glazing,
  {6aa2e92b-6e1c-457c-a45e-8219c4390465}, ! Handle
  Theoretical Glass [200],                ! Name
  SpectralAverage,                        ! Optical Data Type
  ,                                       ! Window Glass Spectral Data Set Name
  0.003,                                  ! Thickness {m}
  0.232305,                               ! Solar Transmittance at Normal Incidence
  0.717695,                               ! Front Side Solar Reflectance at Normal Incidence
  0.717695,                               ! Back Side Solar Reflectance at Normal Incidence
  0.319199,                               ! Visible Transmittance at Normal Incidence
  0.630801,                               ! Front Side Visible Reflectance at Normal Incidence
  0.630801,                               ! Back Side Visible Reflectance at Normal Incidence
  0,                                      ! Infrared Transmittance at Normal Incidence
  0.9,                                    ! Front Side Infrared Hemispherical Emissivity
  0.9,                                    ! Back Side Infrared Hemispherical Emissivity
  0.0160076;                              ! Conductivity {W/m-K}

