
OS:Version,
  {30dd3d5e-28d9-4e0e-9268-67cc570a8cb4}, ! Handle
  0.9.3;                                  ! Version Identifier

OS:ComponentCost:LineItem,
  {24b638a7-4e68-45ad-9d3e-5fe795c483d0}, ! Handle
  90.1-2001 Res B20 Ext Slab Unheated - 4in Slab without Carpet, ! Name
  ,                                       ! Type
  Construction,                           ! Line Item Type
  90.1-2001 Res B20 Ext Slab Unheated - 4in Slab without Carpet, ! Item Name
  ,                                       ! Object End Use Key
  ,                                       ! Quantity {dimensionless}
  45.52,                                  ! Material Cost {$}
  CostPerArea;                            ! Material Cost Units

OS:Construction,
  {10ff262b-0d13-4389-9a93-90d7bddca4a8}, ! Handle
  90.1-2001 Res B20 Ext Slab Unheated - 4in Slab without Carpet, ! Name
  ,                                       ! Surface Rendering Name
  {aae7ad91-f49b-466f-9a0a-b628b44f02d3}; ! Layer 1

OS:Material,
  {aae7ad91-f49b-466f-9a0a-b628b44f02d3}, ! Handle
  MAT-CC05 4 HW CONCRETE,                 ! Name
  Rough,                                  ! Roughness
  0.1016,                                 ! Thickness {m}
  1.311,                                  ! Conductivity {W/m-K}
  2240,                                   ! Density {kg/m3}
  836.8,                                  ! Specific Heat {J/kg-K}
  0.9,                                    ! Thermal Absorptance
  0.7,                                    ! Solar Absorptance
  0.7;                                    ! Visible Absorptance

