
OS:Version,
  {513af5c1-a237-4c38-a9f8-0ee742ae3e43}, ! Handle
  0.9.3;                                  ! Version Identifier

OS:Material,
  {9835914f-e171-4389-89df-514ee8ff9932}, ! Handle
  Wood Siding,                            ! Name
  MediumSmooth,                           ! Roughness
  0.01,                                   ! Thickness {m}
  0.11,                                   ! Conductivity {W/m-K}
  544.62,                                 ! Density {kg/m3}
  1210,                                   ! Specific Heat {J/kg-K}
  0.9,                                    ! Thermal Absorptance
  0.78,                                   ! Solar Absorptance
  0.78;                                   ! Visible Absorptance

OS:Construction,
  {25391554-c926-4256-b2ce-f821a23d70bf}, ! Handle
  90.1-1999 Res B10 Ext Wall Wood-Framed and Other, ! Name
  ,                                       ! Surface Rendering Name
  {9835914f-e171-4389-89df-514ee8ff9932}, ! Layer 1
  {97cc2492-cb61-4dc7-80d0-3589c1c67438}, ! Layer 2
  {c0dde0a9-bea8-4106-a93b-b54da5d14053}; ! Layer 3

OS:Material,
  {97cc2492-cb61-4dc7-80d0-3589c1c67438}, ! Handle
  Wall Insulation [2],                    ! Name
  MediumRough,                            ! Roughness
  0.0746874,                              ! Thickness {m}
  0.045,                                  ! Conductivity {W/m-K}
  265,                                    ! Density {kg/m3}
  836.8,                                  ! Specific Heat {J/kg-K}
  0.9,                                    ! Thermal Absorptance
  0.7,                                    ! Solar Absorptance
  0.7;                                    ! Visible Absorptance

OS:Material,
  {c0dde0a9-bea8-4106-a93b-b54da5d14053}, ! Handle
  1/2IN Gypsum,                           ! Name
  Smooth,                                 ! Roughness
  0.01271,                                ! Thickness {m}
  0.16,                                   ! Conductivity {W/m-K}
  784.9,                                  ! Density {kg/m3}
  830,                                    ! Specific Heat {J/kg-K}
  0.9,                                    ! Thermal Absorptance
  0.92,                                   ! Solar Absorptance
  0.92;                                   ! Visible Absorptance

OS:ComponentCost:LineItem,
  {8e7fbbc5-f009-4086-a611-72deed8e0bef}, ! Handle
  90.1-1999 Res B10 Ext Wall Wood-Framed and Other, ! Name
  ,                                       ! Type
  Construction,                           ! Line Item Type
  90.1-1999 Res B10 Ext Wall Wood-Framed and Other, ! Item Name
  ,                                       ! Object End Use Key
  ,                                       ! Quantity {dimensionless}
  73.056,                                 ! Material Cost {$}
  CostPerArea;                            ! Material Cost Units

