
OS:Version,
  {751970bf-d03c-4b35-ae73-0dde4733ab67}, ! Handle
  0.9.3;                                  ! Version Identifier

OS:Construction,
  {8c64fb73-8cbc-4241-9d60-fac1b92cac03}, ! Handle
  90.1-2007 Nonres 5B Roof Metal Building, ! Name
  ,                                       ! Surface Rendering Name
  {fe6334f9-43c9-4d13-babf-9b25c4953ce3}, ! Layer 1
  {3a904d68-cedd-4af8-bf7a-0a8fc97d4688}; ! Layer 2

OS:Material,
  {fe6334f9-43c9-4d13-babf-9b25c4953ce3}, ! Handle
  Metal Roofing,                          ! Name
  MediumSmooth,                           ! Roughness
  0.001524,                               ! Thickness {m}
  45.006,                                 ! Conductivity {W/m-K}
  7680,                                   ! Density {kg/m3}
  418.4,                                  ! Specific Heat {J/kg-K}
  0.9,                                    ! Thermal Absorptance
  0.7,                                    ! Solar Absorptance
  0.3;                                    ! Visible Absorptance

OS:Material,
  {3a904d68-cedd-4af8-bf7a-0a8fc97d4688}, ! Handle
  Roof Insulation [15],                   ! Name
  MediumRough,                            ! Roughness
  0.123565,                               ! Thickness {m}
  0.049,                                  ! Conductivity {W/m-K}
  265,                                    ! Density {kg/m3}
  836.8,                                  ! Specific Heat {J/kg-K}
  0.9,                                    ! Thermal Absorptance
  0.7,                                    ! Solar Absorptance
  0.7;                                    ! Visible Absorptance

OS:ComponentCost:LineItem,
  {8af1f2d8-a191-4ef1-baef-0b7609cb17ef}, ! Handle
  90.1-2007 Nonres 5B Roof Metal Building, ! Name
  ,                                       ! Type
  Construction,                           ! Line Item Type
  90.1-2007 Nonres 5B Roof Metal Building, ! Item Name
  ,                                       ! Object End Use Key
  ,                                       ! Quantity {dimensionless}
  38.21,                                  ! Material Cost {$}
  CostPerArea;                            ! Material Cost Units

OS:ComponentData,
  {f1b6e917-36d8-4fa6-91af-9687c0b59d79}, ! Handle
  Component Data 1,                       ! Name
  {42857219-5a77-4297-963d-fb1158525f0f}, ! UUID
  {7ba46222-7bf6-4626-86f6-8627b2d2f539}, ! Version UUID
  1363981806,                             ! Creation Timestamp
  1363981806,                             ! Version Timestamp
  {8c64fb73-8cbc-4241-9d60-fac1b92cac03}, ! Name of Object 1
  {fe6334f9-43c9-4d13-babf-9b25c4953ce3}, ! Name of Object 2
  {3a904d68-cedd-4af8-bf7a-0a8fc97d4688}, ! Name of Object 3
  {8af1f2d8-a191-4ef1-baef-0b7609cb17ef}; ! Name of Object 4

