
OS:Version,
  {470ea843-95d8-403f-b995-2d8cd43d5abb}, ! Handle
  0.9.3;                                  ! Version Identifier

OS:Construction,
  {555dfe1b-402b-43fe-9a22-7e449ffad93c}, ! Handle
  90.1-2007 Nonres 5B Roof Metal Building, ! Name
  ,                                       ! Surface Rendering Name
  {5cf4eedb-5102-4d7e-b497-c7e21f04f0b7}, ! Layer 1
  {efda1fed-71a2-4879-8863-4e2c50cd93b5}; ! Layer 2

OS:Material,
  {5cf4eedb-5102-4d7e-b497-c7e21f04f0b7}, ! Handle
  Metal Roofing,                          ! Name
  MediumSmooth,                           ! Roughness
  0.001524,                               ! Thickness {m}
  45.006,                                 ! Conductivity {W/m-K}
  7680,                                   ! Density {kg/m3}
  418.4,                                  ! Specific Heat {J/kg-K}
  0.9,                                    ! Thermal Absorptance
  0.7,                                    ! Solar Absorptance
  0.3;                                    ! Visible Absorptance

OS:Material,
  {efda1fed-71a2-4879-8863-4e2c50cd93b5}, ! Handle
  Roof Insulation [15],                   ! Name
  MediumRough,                            ! Roughness
  0.123565,                               ! Thickness {m}
  0.049,                                  ! Conductivity {W/m-K}
  265,                                    ! Density {kg/m3}
  836.8,                                  ! Specific Heat {J/kg-K}
  0.9,                                    ! Thermal Absorptance
  0.7,                                    ! Solar Absorptance
  0.7;                                    ! Visible Absorptance

OS:ComponentCost:LineItem,
  {4bcbcb56-91d6-4a0f-be6a-7df683240f12}, ! Handle
  90.1-2007 Nonres 5B Roof Metal Building, ! Name
  ,                                       ! Type
  Construction,                           ! Line Item Type
  90.1-2007 Nonres 5B Roof Metal Building, ! Item Name
  ,                                       ! Object End Use Key
  ,                                       ! Quantity {dimensionless}
  38.21,                                  ! Material Cost {$}
  CostPerArea;                            ! Material Cost Units

