
OS:Version,
  {81d059a7-b27c-4278-ba1a-6a89233a4337}, ! Handle
  0.9.3;                                  ! Version Identifier

OS:Material,
  {8ce0c94e-eb13-48b0-954f-ac98f5dad7c2}, ! Handle
  Metal Roofing,                          ! Name
  MediumSmooth,                           ! Roughness
  0.001524,                               ! Thickness {m}
  45.006,                                 ! Conductivity {W/m-K}
  7680,                                   ! Density {kg/m3}
  418.4,                                  ! Specific Heat {J/kg-K}
  0.9,                                    ! Thermal Absorptance
  0.7,                                    ! Solar Absorptance
  0.3;                                    ! Visible Absorptance

OS:Material,
  {2889ebf1-cf95-4ddd-b17b-abf8dd3ad3eb}, ! Handle
  Roof Insulation [1],                    ! Name
  MediumRough,                            ! Roughness
  0.123533,                               ! Thickness {m}
  0.049,                                  ! Conductivity {W/m-K}
  265,                                    ! Density {kg/m3}
  836.8,                                  ! Specific Heat {J/kg-K}
  0.9,                                    ! Thermal Absorptance
  0.7,                                    ! Solar Absorptance
  0.7;                                    ! Visible Absorptance

OS:ComponentCost:LineItem,
  {7d5b82e2-5c75-4382-9f09-e044db2125f2}, ! Handle
  90.1-1999 Res B19 Roof Metal Building,  ! Name
  ,                                       ! Type
  Construction,                           ! Line Item Type
  90.1-1999 Res B19 Roof Metal Building,  ! Item Name
  ,                                       ! Object End Use Key
  ,                                       ! Quantity {dimensionless}
  38.206,                                 ! Material Cost {$}
  CostPerArea;                            ! Material Cost Units

OS:Construction,
  {30f6f17d-e027-41b1-baf3-4e8db27653d8}, ! Handle
  90.1-1999 Res B19 Roof Metal Building,  ! Name
  ,                                       ! Surface Rendering Name
  {8ce0c94e-eb13-48b0-954f-ac98f5dad7c2}, ! Layer 1
  {2889ebf1-cf95-4ddd-b17b-abf8dd3ad3eb}; ! Layer 2

