
OS:Version,
  {353ac420-5447-44ab-a58c-cec22610830f}, !- Handle
  1.1.0;                                  !- Version Identifier

OS:Construction,
  {32859771-3d3a-4211-a5eb-e9cb4b0c77fe}, !- Handle
  Dbl Ref-C-M Clr 6mm/13mm Air,           !- Name
  ,                                       !- Surface Rendering Name
  {ad2c7126-5cc2-4f60-a8a0-5ec09879e788}, !- Layer 1
  {4e3c3543-b69a-4187-bc31-fbbc8b0d5ad0}, !- Layer 2
  {a1f0acb0-add8-45b9-a2c3-89c297ccef58}; !- Layer 3

OS:WindowMaterial:Glazing,
  {ad2c7126-5cc2-4f60-a8a0-5ec09879e788}, !- Handle
  REF C CLEAR MID 6MM,                    !- Name
  SpectralAverage,                        !- Optical Data Type
  ,                                       !- Window Glass Spectral Data Set Name
  0.006,                                  !- Thickness {m}
  0.17,                                   !- Solar Transmittance at Normal Incidence
  0.2,                                    !- Front Side Solar Reflectance at Normal Incidence
  0.42,                                   !- Back Side Solar Reflectance at Normal Incidence
  0.19,                                   !- Visible Transmittance at Normal Incidence
  0.21,                                   !- Front Side Visible Reflectance at Normal Incidence
  0.38,                                   !- Back Side Visible Reflectance at Normal Incidence
  0,                                      !- Infrared Transmittance at Normal Incidence
  0.84,                                   !- Front Side Infrared Hemispherical Emissivity
  0.51,                                   !- Back Side Infrared Hemispherical Emissivity
  0.9;                                    !- Conductivity {W/m-K}

OS:WindowMaterial:Gas,
  {4e3c3543-b69a-4187-bc31-fbbc8b0d5ad0}, !- Handle
  AIR 13MM,                               !- Name
  Air,                                    !- Gas Type
  0.0127;                                 !- Thickness {m}

OS:WindowMaterial:Glazing,
  {a1f0acb0-add8-45b9-a2c3-89c297ccef58}, !- Handle
  CLEAR 6MM,                              !- Name
  SpectralAverage,                        !- Optical Data Type
  ,                                       !- Window Glass Spectral Data Set Name
  0.006,                                  !- Thickness {m}
  0.775,                                  !- Solar Transmittance at Normal Incidence
  0.071,                                  !- Front Side Solar Reflectance at Normal Incidence
  0.071,                                  !- Back Side Solar Reflectance at Normal Incidence
  0.881,                                  !- Visible Transmittance at Normal Incidence
  0.08,                                   !- Front Side Visible Reflectance at Normal Incidence
  0.08,                                   !- Back Side Visible Reflectance at Normal Incidence
  0,                                      !- Infrared Transmittance at Normal Incidence
  0.84,                                   !- Front Side Infrared Hemispherical Emissivity
  0.84,                                   !- Back Side Infrared Hemispherical Emissivity
  0.9;                                    !- Conductivity {W/m-K}

