
OS:Version,
  {b692397a-25e1-4296-8080-6dd40727d082}, ! Handle
  0.9.3;                                  ! Version Identifier

OS:Construction,
  {6ad58743-8d58-4046-b153-a544b4e55259}, ! Handle
  90.1-1999 Nonres B4 Skylight without Curb, ! Name
  ,                                       ! Surface Rendering Name
  {aae39394-b997-4b59-8d24-c390e572f67d}; ! Layer 1

OS:WindowMaterial:Glazing,
  {aae39394-b997-4b59-8d24-c390e572f67d}, ! Handle
  Theoretical Glass [12],                 ! Name
  SpectralAverage,                        ! Optical Data Type
  ,                                       ! Window Glass Spectral Data Set Name
  0.003,                                  ! Thickness {m}
  0.595954,                               ! Solar Transmittance at Normal Incidence
  0.354046,                               ! Front Side Solar Reflectance at Normal Incidence
  0.354046,                               ! Back Side Solar Reflectance at Normal Incidence
  0.671296,                               ! Visible Transmittance at Normal Incidence
  0.278704,                               ! Front Side Visible Reflectance at Normal Incidence
  0.278704,                               ! Back Side Visible Reflectance at Normal Incidence
  0,                                      ! Infrared Transmittance at Normal Incidence
  0.999,                                  ! Front Side Infrared Hemispherical Emissivity
  0.999,                                  ! Back Side Infrared Hemispherical Emissivity
  299.383;                                ! Conductivity {W/m-K}

OS:ComponentCost:LineItem,
  {19fb2e46-fb95-45bd-b2e5-31fa345e12e9}, ! Handle
  90.1-1999 Nonres B4 Skylight without Curb, ! Name
  ,                                       ! Type
  Construction,                           ! Line Item Type
  90.1-1999 Nonres B4 Skylight without Curb, ! Item Name
  ,                                       ! Object End Use Key
  ,                                       ! Quantity {dimensionless}
  459.189,                                ! Material Cost {$}
  CostPerArea;                            ! Material Cost Units

