
OS:Version,
  {4ecfaa05-a9e6-4ea6-a57a-1081cd841459}, ! Handle
  0.9.3;                                  ! Version Identifier

OS:Construction,
  {7c1e1dca-6418-4c10-bfcb-fb719e918092}, ! Handle
  90.1-1999 Nonres B4 Skylight without Curb, ! Name
  ,                                       ! Surface Rendering Name
  {6670ba78-1e45-400e-a9bf-2b4c31be6e72}; ! Layer 1

OS:WindowMaterial:Glazing,
  {6670ba78-1e45-400e-a9bf-2b4c31be6e72}, ! Handle
  Theoretical Glass [12],                 ! Name
  SpectralAverage,                        ! Optical Data Type
  ,                                       ! Window Glass Spectral Data Set Name
  0.003,                                  ! Thickness {m}
  0.595954,                               ! Solar Transmittance at Normal Incidence
  0.354046,                               ! Front Side Solar Reflectance at Normal Incidence
  0.354046,                               ! Back Side Solar Reflectance at Normal Incidence
  0.671296,                               ! Visible Transmittance at Normal Incidence
  0.278704,                               ! Front Side Visible Reflectance at Normal Incidence
  0.278704,                               ! Back Side Visible Reflectance at Normal Incidence
  0,                                      ! Infrared Transmittance at Normal Incidence
  0.999,                                  ! Front Side Infrared Hemispherical Emissivity
  0.999,                                  ! Back Side Infrared Hemispherical Emissivity
  299.383;                                ! Conductivity {W/m-K}

OS:ComponentCost:LineItem,
  {5ea749be-3ed9-4eb2-9038-c99433c87a36}, ! Handle
  90.1-1999 Nonres B4 Skylight without Curb, ! Name
  ,                                       ! Type
  Construction,                           ! Line Item Type
  90.1-1999 Nonres B4 Skylight without Curb, ! Item Name
  ,                                       ! Object End Use Key
  ,                                       ! Quantity {dimensionless}
  459.189,                                ! Material Cost {$}
  CostPerArea;                            ! Material Cost Units

OS:ComponentData,
  {a4a99e44-81d2-4103-b2cb-5ff71e15e00d}, ! Handle
  Component Data 1,                       ! Name
  {0f1ac9ed-874b-42db-a8ac-2c1190efc40d}, ! UUID
  {d6bed65a-0877-452f-8d1b-742b5e5135c8}, ! Version UUID
  1363981055,                             ! Creation Timestamp
  1363981055,                             ! Version Timestamp
  {7c1e1dca-6418-4c10-bfcb-fb719e918092}, ! Name of Object 1
  {6670ba78-1e45-400e-a9bf-2b4c31be6e72}, ! Name of Object 2
  {5ea749be-3ed9-4eb2-9038-c99433c87a36}; ! Name of Object 3

