
OS:Version,
  {28fa05fc-fb44-4c57-abc7-5a043429bc67}, ! Handle
  0.9.3;                                  ! Version Identifier

OS:Construction,
  {c85e7fc4-3f9d-407f-9161-f9c94813ee3d}, ! Handle
  90.1 Constructions Ext Wall Steel-Framed R-13.0 + R-15.6 ci, ! Name
  ,                                       ! Surface Rendering Name
  {aec4408b-7eb6-4754-b9c0-5033567a4020}, ! Layer 1
  {cb4d43c0-c9f7-461f-8816-142f59b95e6b}, ! Layer 2
  {686f4e4e-7ddc-4f6e-98a5-d86037306320}; ! Layer 3

OS:Material:NoMass,
  {aec4408b-7eb6-4754-b9c0-5033567a4020}, ! Handle
  MAT-SHEATH,                             ! Name
  Rough,                                  ! Roughness
  0.36256,                                ! Thermal Resistance {m2-K/W}
  0.9,                                    ! Thermal Absorptance
  0.7,                                    ! Solar Absorptance
  0.7;                                    ! Visible Absorptance

OS:Material,
  {cb4d43c0-c9f7-461f-8816-142f59b95e6b}, ! Handle
  Wall Insulation [108],                  ! Name
  MediumRough,                            ! Roughness
  0.160953,                               ! Thickness {m}
  0.045,                                  ! Conductivity {W/m-K}
  265,                                    ! Density {kg/m3}
  836.8,                                  ! Specific Heat {J/kg-K}
  0.9,                                    ! Thermal Absorptance
  0.7,                                    ! Solar Absorptance
  0.7;                                    ! Visible Absorptance

OS:Material,
  {686f4e4e-7ddc-4f6e-98a5-d86037306320}, ! Handle
  1/2IN Gypsum,                           ! Name
  Smooth,                                 ! Roughness
  0.01271,                                ! Thickness {m}
  0.16,                                   ! Conductivity {W/m-K}
  784.9,                                  ! Density {kg/m3}
  830,                                    ! Specific Heat {J/kg-K}
  0.9,                                    ! Thermal Absorptance
  0.92,                                   ! Solar Absorptance
  0.92;                                   ! Visible Absorptance

OS:ComponentCost:LineItem,
  {78c1d3a7-45ee-46d5-a361-2035fa68f5e9}, ! Handle
  90.1 Constructions Ext Wall Steel-Framed R-13.0 + R-15.6 ci, ! Name
  ,                                       ! Type
  Construction,                           ! Line Item Type
  90.1 Constructions Ext Wall Steel-Framed R-13.0 + R-15.6 ci, ! Item Name
  ,                                       ! Object End Use Key
  ,                                       ! Quantity {dimensionless}
  101.559,                                ! Material Cost {$}
  CostPerArea;                            ! Material Cost Units

OS:ComponentData,
  {fdd02b80-cc8a-4f70-8a85-9d8f3562aa43}, ! Handle
  Component Data 1,                       ! Name
  {575cedc2-1b26-4d64-98a5-fe0e015f28d8}, ! UUID
  {61067e86-e187-441f-b204-7a4e0d296b35}, ! Version UUID
  1363980995,                             ! Creation Timestamp
  1363980995,                             ! Version Timestamp
  {c85e7fc4-3f9d-407f-9161-f9c94813ee3d}, ! Name of Object 1
  {aec4408b-7eb6-4754-b9c0-5033567a4020}, ! Name of Object 2
  {cb4d43c0-c9f7-461f-8816-142f59b95e6b}, ! Name of Object 3
  {686f4e4e-7ddc-4f6e-98a5-d86037306320}, ! Name of Object 4
  {78c1d3a7-45ee-46d5-a361-2035fa68f5e9}; ! Name of Object 5

