
OS:Version,
  {ab238451-8b59-429f-8032-13c3a3064b6f}, ! Handle
  0.9.3;                                  ! Version Identifier

OS:ComponentCost:LineItem,
  {521f0048-66ea-40df-ab20-22142e8eb81e}, ! Handle
  90.1 Constructions Ext Wall Steel-Framed R-13.0 + R-15.6 ci, ! Name
  ,                                       ! Type
  Construction,                           ! Line Item Type
  90.1 Constructions Ext Wall Steel-Framed R-13.0 + R-15.6 ci, ! Item Name
  ,                                       ! Object End Use Key
  ,                                       ! Quantity {dimensionless}
  101.559,                                ! Material Cost {$}
  CostPerArea;                            ! Material Cost Units

OS:Material,
  {e141c41f-667f-4466-8cf1-fd679251ea3a}, ! Handle
  1/2IN Gypsum,                           ! Name
  Smooth,                                 ! Roughness
  0.01271,                                ! Thickness {m}
  0.16,                                   ! Conductivity {W/m-K}
  784.9,                                  ! Density {kg/m3}
  830,                                    ! Specific Heat {J/kg-K}
  0.9,                                    ! Thermal Absorptance
  0.92,                                   ! Solar Absorptance
  0.92;                                   ! Visible Absorptance

OS:Material:NoMass,
  {dec27c30-cd9b-4506-8138-c297ab71d1db}, ! Handle
  MAT-SHEATH,                             ! Name
  Rough,                                  ! Roughness
  0.36256,                                ! Thermal Resistance {m2-K/W}
  0.9,                                    ! Thermal Absorptance
  0.7,                                    ! Solar Absorptance
  0.7;                                    ! Visible Absorptance

OS:Construction,
  {435df4ab-f71b-41e2-8292-94147ee3f327}, ! Handle
  90.1 Constructions Ext Wall Steel-Framed R-13.0 + R-15.6 ci, ! Name
  ,                                       ! Surface Rendering Name
  {dec27c30-cd9b-4506-8138-c297ab71d1db}, ! Layer 1
  {02f004b6-35a8-4c04-89d4-5e110fcefca3}, ! Layer 2
  {e141c41f-667f-4466-8cf1-fd679251ea3a}; ! Layer 3

OS:Material,
  {02f004b6-35a8-4c04-89d4-5e110fcefca3}, ! Handle
  Wall Insulation [108],                  ! Name
  MediumRough,                            ! Roughness
  0.160953,                               ! Thickness {m}
  0.045,                                  ! Conductivity {W/m-K}
  265,                                    ! Density {kg/m3}
  836.8,                                  ! Specific Heat {J/kg-K}
  0.9,                                    ! Thermal Absorptance
  0.7,                                    ! Solar Absorptance
  0.7;                                    ! Visible Absorptance

