
OS:Version,
  {8d06b355-0991-477b-a237-9532e3ea2eb7}, ! Handle
  0.9.3;                                  ! Version Identifier

OS:Construction,
  {22c3e6a8-146a-49b2-88d7-e1fcbb690602}, ! Handle
  90.1-2004 Res 2A Roof Attic and Other,  ! Name
  ,                                       ! Surface Rendering Name
  {71d5e840-4653-4fbc-99e1-63c949eaf0f7}, ! Layer 1
  {2477acd8-cda2-402c-b918-861057c170df}, ! Layer 2
  {218523ef-41ca-4850-ab25-e885682b05d7}, ! Layer 3
  {7118822f-77cb-45e2-afc1-be6f76629090}; ! Layer 4

OS:Material,
  {71d5e840-4653-4fbc-99e1-63c949eaf0f7}, ! Handle
  Wood Shingles,                          ! Name
  VeryRough,                              ! Roughness
  0.0178,                                 ! Thickness {m}
  0.115,                                  ! Conductivity {W/m-K}
  513,                                    ! Density {kg/m3}
  1255,                                   ! Specific Heat {J/kg-K}
  0.9,                                    ! Thermal Absorptance
  0.78,                                   ! Solar Absorptance
  0.78;                                   ! Visible Absorptance

OS:Material,
  {2477acd8-cda2-402c-b918-861057c170df}, ! Handle
  1IN Wood Decking,                       ! Name
  MediumSmooth,                           ! Roughness
  0.0254,                                 ! Thickness {m}
  0.1211,                                 ! Conductivity {W/m-K}
  593,                                    ! Density {kg/m3}
  2510,                                   ! Specific Heat {J/kg-K}
  0.9,                                    ! Thermal Absorptance
  0.78,                                   ! Solar Absorptance
  0.78;                                   ! Visible Absorptance

OS:Material,
  {218523ef-41ca-4850-ab25-e885682b05d7}, ! Handle
  Roof Insulation [5],                    ! Name
  MediumRough,                            ! Roughness
  0.286906,                               ! Thickness {m}
  0.049,                                  ! Conductivity {W/m-K}
  265,                                    ! Density {kg/m3}
  836.8,                                  ! Specific Heat {J/kg-K}
  0.9,                                    ! Thermal Absorptance
  0.7,                                    ! Solar Absorptance
  0.7;                                    ! Visible Absorptance

OS:Material,
  {7118822f-77cb-45e2-afc1-be6f76629090}, ! Handle
  1/2IN Gypsum,                           ! Name
  Smooth,                                 ! Roughness
  0.01271,                                ! Thickness {m}
  0.16,                                   ! Conductivity {W/m-K}
  784.9,                                  ! Density {kg/m3}
  830,                                    ! Specific Heat {J/kg-K}
  0.9,                                    ! Thermal Absorptance
  0.92,                                   ! Solar Absorptance
  0.92;                                   ! Visible Absorptance

OS:ComponentCost:LineItem,
  {7ad60bb0-e058-4078-831d-3e3f6270d19b}, ! Handle
  90.1-2004 Res 2A Roof Attic and Other,  ! Name
  ,                                       ! Type
  Construction,                           ! Line Item Type
  90.1-2004 Res 2A Roof Attic and Other,  ! Item Name
  ,                                       ! Object End Use Key
  ,                                       ! Quantity {dimensionless}
  34.757,                                 ! Material Cost {$}
  CostPerArea;                            ! Material Cost Units

OS:ComponentData,
  {933cd39b-6e2a-4d19-8610-edff885c7553}, ! Handle
  Component Data 1,                       ! Name
  {563e2d9c-8245-40a9-bf1b-78c1d4409bbd}, ! UUID
  {6570e8a2-55b8-4753-a50d-9a159afd2279}, ! Version UUID
  1363981716,                             ! Creation Timestamp
  1363981716,                             ! Version Timestamp
  {22c3e6a8-146a-49b2-88d7-e1fcbb690602}, ! Name of Object 1
  {71d5e840-4653-4fbc-99e1-63c949eaf0f7}, ! Name of Object 2
  {2477acd8-cda2-402c-b918-861057c170df}, ! Name of Object 3
  {218523ef-41ca-4850-ab25-e885682b05d7}, ! Name of Object 4
  {7118822f-77cb-45e2-afc1-be6f76629090}, ! Name of Object 5
  {7ad60bb0-e058-4078-831d-3e3f6270d19b}; ! Name of Object 6

