
OS:Version,
  {f9676877-87e6-40ea-9138-60ed3aac05e0}, ! Handle
  0.9.3;                                  ! Version Identifier

OS:Construction,
  {b7be9ed0-da22-4c87-8722-fd12d35769ca}, ! Handle
  189.1-2009 Nonres 4B Int Wall,          ! Name
  ,                                       ! Surface Rendering Name
  {3e416069-4c5d-4554-8dea-c14cb15d13e9}, ! Layer 1
  {3e416069-4c5d-4554-8dea-c14cb15d13e9}; ! Layer 2

OS:Material,
  {3e416069-4c5d-4554-8dea-c14cb15d13e9}, ! Handle
  GP01 1/2 GYPSUM,                        ! Name
  Smooth,                                 ! Roughness
  0.01271,                                ! Thickness {m}
  0.16,                                   ! Conductivity {W/m-K}
  800,                                    ! Density {kg/m3}
  1090,                                   ! Specific Heat {J/kg-K}
  0.9,                                    ! Thermal Absorptance
  0.7,                                    ! Solar Absorptance
  0.5;                                    ! Visible Absorptance

OS:ComponentCost:LineItem,
  {9429bcd9-bcb2-41f9-9674-69aab46c29b4}, ! Handle
  189.1-2009 Nonres 4B Int Wall,          ! Name
  ,                                       ! Type
  Construction,                           ! Line Item Type
  189.1-2009 Nonres 4B Int Wall,          ! Item Name
  ,                                       ! Object End Use Key
  ,                                       ! Quantity {dimensionless}
  0,                                      ! Material Cost {$}
  CostPerArea;                            ! Material Cost Units

OS:ComponentData,
  {64c74ce9-03a4-4043-bbb8-711e62816d15}, ! Handle
  Component Data 1,                       ! Name
  {d67d8379-ab84-4351-80d7-b203d02f4021}, ! UUID
  {f9efbacb-d406-451c-bf39-849d0ca745d1}, ! Version UUID
  1363980938,                             ! Creation Timestamp
  1363980938,                             ! Version Timestamp
  {b7be9ed0-da22-4c87-8722-fd12d35769ca}, ! Name of Object 1
  {3e416069-4c5d-4554-8dea-c14cb15d13e9}, ! Name of Object 2
  {9429bcd9-bcb2-41f9-9674-69aab46c29b4}; ! Name of Object 3

