
OS:Version,
  {d30216b7-76de-4d43-94b7-4200db6c9c2c}, ! Handle
  0.9.3;                                  ! Version Identifier

OS:WindowMaterial:Glazing,
  {a69fd074-80c4-40ae-b483-d73a80b53a37}, ! Handle
  Theoretical Glass [226],                ! Name
  SpectralAverage,                        ! Optical Data Type
  ,                                       ! Window Glass Spectral Data Set Name
  0.003,                                  ! Thickness {m}
  0.171679,                               ! Solar Transmittance at Normal Incidence
  0.778321,                               ! Front Side Solar Reflectance at Normal Incidence
  0.778321,                               ! Back Side Solar Reflectance at Normal Incidence
  0.242683,                               ! Visible Transmittance at Normal Incidence
  0.707317,                               ! Front Side Visible Reflectance at Normal Incidence
  0.707317,                               ! Back Side Visible Reflectance at Normal Incidence
  0,                                      ! Infrared Transmittance at Normal Incidence
  0.9,                                    ! Front Side Infrared Hemispherical Emissivity
  0.9,                                    ! Back Side Infrared Hemispherical Emissivity
  0.0133144;                              ! Conductivity {W/m-K}

OS:ComponentCost:LineItem,
  {ed894a84-9705-43c1-9a3f-381a6484495e}, ! Handle
  189.1-2009 Res 4B Skylight without Curb, ! Name
  ,                                       ! Type
  Construction,                           ! Line Item Type
  189.1-2009 Res 4B Skylight without Curb, ! Item Name
  ,                                       ! Object End Use Key
  ,                                       ! Quantity {dimensionless}
  618.006,                                ! Material Cost {$}
  CostPerArea;                            ! Material Cost Units

OS:Construction,
  {d2e23718-51d3-4f9d-b43e-12105d4544fe}, ! Handle
  189.1-2009 Res 4B Skylight without Curb, ! Name
  ,                                       ! Surface Rendering Name
  {a69fd074-80c4-40ae-b483-d73a80b53a37}; ! Layer 1

