
OS:Version,
  {73f237b5-d045-4f55-b153-853ed00ab81b}, ! Handle
  0.9.3;                                  ! Version Identifier

OS:Construction,
  {743c30de-a16f-47bb-b658-3d2d4630908e}, ! Handle
  189.1-2009 Res 4B Skylight without Curb, ! Name
  ,                                       ! Surface Rendering Name
  {e0e9c631-4aed-45c9-b3ff-b5115f7a9a9f}; ! Layer 1

OS:WindowMaterial:Glazing,
  {e0e9c631-4aed-45c9-b3ff-b5115f7a9a9f}, ! Handle
  Theoretical Glass [226],                ! Name
  SpectralAverage,                        ! Optical Data Type
  ,                                       ! Window Glass Spectral Data Set Name
  0.003,                                  ! Thickness {m}
  0.171679,                               ! Solar Transmittance at Normal Incidence
  0.778321,                               ! Front Side Solar Reflectance at Normal Incidence
  0.778321,                               ! Back Side Solar Reflectance at Normal Incidence
  0.242683,                               ! Visible Transmittance at Normal Incidence
  0.707317,                               ! Front Side Visible Reflectance at Normal Incidence
  0.707317,                               ! Back Side Visible Reflectance at Normal Incidence
  0,                                      ! Infrared Transmittance at Normal Incidence
  0.9,                                    ! Front Side Infrared Hemispherical Emissivity
  0.9,                                    ! Back Side Infrared Hemispherical Emissivity
  0.0133144;                              ! Conductivity {W/m-K}

OS:ComponentCost:LineItem,
  {0dda1195-dacc-49be-a07b-343f1850b598}, ! Handle
  189.1-2009 Res 4B Skylight without Curb, ! Name
  ,                                       ! Type
  Construction,                           ! Line Item Type
  189.1-2009 Res 4B Skylight without Curb, ! Item Name
  ,                                       ! Object End Use Key
  ,                                       ! Quantity {dimensionless}
  618.006,                                ! Material Cost {$}
  CostPerArea;                            ! Material Cost Units

OS:ComponentData,
  {5b2b4435-2211-491d-9b9d-c716d2ec37cd}, ! Handle
  Component Data 1,                       ! Name
  {122567d0-6c3b-4702-8116-4a3509d7beae}, ! UUID
  {300d8f0f-8214-4f38-bcd8-cc34e6287430}, ! Version UUID
  1363980974,                             ! Creation Timestamp
  1363980974,                             ! Version Timestamp
  {743c30de-a16f-47bb-b658-3d2d4630908e}, ! Name of Object 1
  {e0e9c631-4aed-45c9-b3ff-b5115f7a9a9f}, ! Name of Object 2
  {0dda1195-dacc-49be-a07b-343f1850b598}; ! Name of Object 3

