
OS:Version,
  {3b1fa3b2-9150-4f4b-820f-c74fb44ba0af}, ! Handle
  0.9.3;                                  ! Version Identifier

OS:ComponentCost:LineItem,
  {511c7c35-86eb-4405-a755-81291a624090}, ! Handle
  90.1-1999 Nonres B26 Ext Wall Metal Building, ! Name
  ,                                       ! Type
  Construction,                           ! Line Item Type
  90.1-1999 Nonres B26 Ext Wall Metal Building, ! Item Name
  ,                                       ! Object End Use Key
  ,                                       ! Quantity {dimensionless}
  107.698,                                ! Material Cost {$}
  CostPerArea;                            ! Material Cost Units

OS:Construction,
  {985c6d8e-ccbe-4654-8faf-fccadf6ac7a6}, ! Handle
  90.1-1999 Nonres B26 Ext Wall Metal Building, ! Name
  ,                                       ! Surface Rendering Name
  {3c11ccdd-d7f8-45b7-8110-8546fb05a6a7}, ! Layer 1
  {cdca2b29-2f0e-4c54-80b3-69d265efbd82}, ! Layer 2
  {6882d0a0-eacb-48e7-bfab-29d7b2e984c6}; ! Layer 3

OS:Material,
  {3c11ccdd-d7f8-45b7-8110-8546fb05a6a7}, ! Handle
  Metal Siding,                           ! Name
  Smooth,                                 ! Roughness
  0.0015,                                 ! Thickness {m}
  44.96,                                  ! Conductivity {W/m-K}
  7688.86,                                ! Density {kg/m3}
  410,                                    ! Specific Heat {J/kg-K}
  0.9,                                    ! Thermal Absorptance
  0.2,                                    ! Solar Absorptance
  0.2;                                    ! Visible Absorptance

OS:Material,
  {cdca2b29-2f0e-4c54-80b3-69d265efbd82}, ! Handle
  Wall Insulation [9],                    ! Name
  MediumRough,                            ! Roughness
  0.128642,                               ! Thickness {m}
  0.045,                                  ! Conductivity {W/m-K}
  265,                                    ! Density {kg/m3}
  836.8,                                  ! Specific Heat {J/kg-K}
  0.9,                                    ! Thermal Absorptance
  0.7,                                    ! Solar Absorptance
  0.7;                                    ! Visible Absorptance

OS:Material,
  {6882d0a0-eacb-48e7-bfab-29d7b2e984c6}, ! Handle
  1/2IN Gypsum,                           ! Name
  Smooth,                                 ! Roughness
  0.01271,                                ! Thickness {m}
  0.16,                                   ! Conductivity {W/m-K}
  784.9,                                  ! Density {kg/m3}
  830,                                    ! Specific Heat {J/kg-K}
  0.9,                                    ! Thermal Absorptance
  0.92,                                   ! Solar Absorptance
  0.92;                                   ! Visible Absorptance

