
OS:Version,
  {b3a1d465-74e8-4796-8164-5f2e8c289a07}, ! Handle
  0.9.3;                                  ! Version Identifier

OS:WindowMaterial:Glazing,
  {9e747add-0ab7-4d3b-b8ec-2b0e786c9f7d}, ! Handle
  Theoretical Glass [36],                 ! Name
  SpectralAverage,                        ! Optical Data Type
  ,                                       ! Window Glass Spectral Data Set Name
  0.003,                                  ! Thickness {m}
  0.354957,                               ! Solar Transmittance at Normal Incidence
  0.595043,                               ! Front Side Solar Reflectance at Normal Incidence
  0.595043,                               ! Back Side Solar Reflectance at Normal Incidence
  0.376261,                               ! Visible Transmittance at Normal Incidence
  0.573739,                               ! Front Side Visible Reflectance at Normal Incidence
  0.573739,                               ! Back Side Visible Reflectance at Normal Incidence
  0,                                      ! Infrared Transmittance at Normal Incidence
  0.9,                                    ! Front Side Infrared Hemispherical Emissivity
  0.9,                                    ! Back Side Infrared Hemispherical Emissivity
  0.0134755;                              ! Conductivity {W/m-K}

OS:ComponentCost:LineItem,
  {867c95e9-254f-404d-83e3-6c6866b9de70}, ! Handle
  90.1-1999 Nonres B14 Window Fixed,      ! Name
  ,                                       ! Type
  Construction,                           ! Line Item Type
  90.1-1999 Nonres B14 Window Fixed,      ! Item Name
  ,                                       ! Object End Use Key
  ,                                       ! Quantity {dimensionless}
  554.2,                                  ! Material Cost {$}
  CostPerArea;                            ! Material Cost Units

OS:Construction,
  {6e2b2560-fb90-4041-938b-59bf67b19585}, ! Handle
  90.1-1999 Nonres B14 Window Fixed,      ! Name
  ,                                       ! Surface Rendering Name
  {9e747add-0ab7-4d3b-b8ec-2b0e786c9f7d}; ! Layer 1

