
OS:Version,
  {1fedf455-5050-424a-9aa3-5017a6609675}, ! Handle
  0.9.3;                                  ! Version Identifier

OS:Material,
  {78a4ec48-bd1c-4ac5-8f7b-cf392acb8297}, ! Handle
  MAT-CC05 8 HW CONCRETE,                 ! Name
  Rough,                                  ! Roughness
  0.20321,                                ! Thickness {m}
  1.311,                                  ! Conductivity {W/m-K}
  2240,                                   ! Density {kg/m3}
  836.8,                                  ! Specific Heat {J/kg-K}
  0.9,                                    ! Thermal Absorptance
  0.7,                                    ! Solar Absorptance
  0.7;                                    ! Visible Absorptance

OS:ComponentCost:LineItem,
  {053a1f79-da5f-4c1d-8980-b57fcb10c6dc}, ! Handle
  90.1-1999 Nonres B19 Ext Slab Unheated - 8in Slab without Carpet, ! Name
  ,                                       ! Type
  Construction,                           ! Line Item Type
  90.1-1999 Nonres B19 Ext Slab Unheated - 8in Slab without Carpet, ! Item Name
  ,                                       ! Object End Use Key
  ,                                       ! Quantity {dimensionless}
  45.52,                                  ! Material Cost {$}
  CostPerArea;                            ! Material Cost Units

OS:Construction,
  {8e141e09-d640-415e-9629-2ae3e0cd902f}, ! Handle
  90.1-1999 Nonres B19 Ext Slab Unheated - 8in Slab without Carpet, ! Name
  ,                                       ! Surface Rendering Name
  {78a4ec48-bd1c-4ac5-8f7b-cf392acb8297}; ! Layer 1

