
OS:Version,
  {8fe27765-1e76-4744-a884-54311d414e37}, ! Handle
  0.9.3;                                  ! Version Identifier

OS:Construction,
  {e6ede561-c290-4a72-bebb-90c23647c178}, ! Handle
  90.1-2004 Res 8A Int Wall,              ! Name
  ,                                       ! Surface Rendering Name
  {01fe2059-a226-43eb-9e1f-84b9bdaba0f8}, ! Layer 1
  {01fe2059-a226-43eb-9e1f-84b9bdaba0f8}; ! Layer 2

OS:Material,
  {01fe2059-a226-43eb-9e1f-84b9bdaba0f8}, ! Handle
  GP01 1/2 GYPSUM,                        ! Name
  Smooth,                                 ! Roughness
  0.01271,                                ! Thickness {m}
  0.16,                                   ! Conductivity {W/m-K}
  800,                                    ! Density {kg/m3}
  1090,                                   ! Specific Heat {J/kg-K}
  0.9,                                    ! Thermal Absorptance
  0.7,                                    ! Solar Absorptance
  0.5;                                    ! Visible Absorptance

OS:ComponentCost:LineItem,
  {d084cd65-1d2e-4ea5-90f7-08bea0862cc1}, ! Handle
  90.1-2004 Res 8A Int Wall,              ! Name
  ,                                       ! Type
  Construction,                           ! Line Item Type
  90.1-2004 Res 8A Int Wall,              ! Item Name
  ,                                       ! Object End Use Key
  ,                                       ! Quantity {dimensionless}
  0,                                      ! Material Cost {$}
  CostPerArea;                            ! Material Cost Units

OS:ComponentData,
  {0228e628-c3b8-4f6e-9c09-9025f11ea118}, ! Handle
  Component Data 1,                       ! Name
  {9893adaa-1097-4614-b528-71146e037e29}, ! UUID
  {d48cc092-3e50-44bb-b7c6-9a608e1163a2}, ! Version UUID
  1363981766,                             ! Creation Timestamp
  1363981766,                             ! Version Timestamp
  {e6ede561-c290-4a72-bebb-90c23647c178}, ! Name of Object 1
  {01fe2059-a226-43eb-9e1f-84b9bdaba0f8}, ! Name of Object 2
  {d084cd65-1d2e-4ea5-90f7-08bea0862cc1}; ! Name of Object 3

