
OS:Version,
  {bb2e01c7-68b9-4ed6-b054-1acd1fc0b8cf}, ! Handle
  0.9.3;                                  ! Version Identifier

OS:ComponentCost:LineItem,
  {7656c90a-97bb-42eb-8208-991094d70537}, ! Handle
  189.1-2009 Res 2A Exposed Floor Mass,   ! Name
  ,                                       ! Type
  Construction,                           ! Line Item Type
  189.1-2009 Res 2A Exposed Floor Mass,   ! Item Name
  ,                                       ! Object End Use Key
  ,                                       ! Quantity {dimensionless}
  49.464,                                 ! Material Cost {$}
  CostPerArea;                            ! Material Cost Units

OS:Construction,
  {a8a94dfc-719c-41d7-875a-c97197879afb}, ! Handle
  189.1-2009 Res 2A Exposed Floor Mass,   ! Name
  ,                                       ! Surface Rendering Name
  {1df27a23-1f32-47d6-a90b-5b32cbe563f3}, ! Layer 1
  {087232c1-0b87-4bb1-90e6-206cfeb3ff6e}, ! Layer 2
  {615c99ad-e0ce-408a-af4b-8fb0065fc43c}; ! Layer 3

OS:Material,
  {1df27a23-1f32-47d6-a90b-5b32cbe563f3}, ! Handle
  Floor Insulation [12],                  ! Name
  MediumRough,                            ! Roughness
  0.0623716,                              ! Thickness {m}
  0.045,                                  ! Conductivity {W/m-K}
  265,                                    ! Density {kg/m3}
  836.8,                                  ! Specific Heat {J/kg-K}
  0.9,                                    ! Thermal Absorptance
  0.7,                                    ! Solar Absorptance
  0.7;                                    ! Visible Absorptance

OS:Material,
  {087232c1-0b87-4bb1-90e6-206cfeb3ff6e}, ! Handle
  MAT-CC05 8 HW CONCRETE,                 ! Name
  Rough,                                  ! Roughness
  0.20321,                                ! Thickness {m}
  1.311,                                  ! Conductivity {W/m-K}
  2240,                                   ! Density {kg/m3}
  836.8,                                  ! Specific Heat {J/kg-K}
  0.9,                                    ! Thermal Absorptance
  0.7,                                    ! Solar Absorptance
  0.7;                                    ! Visible Absorptance

OS:Material:NoMass,
  {615c99ad-e0ce-408a-af4b-8fb0065fc43c}, ! Handle
  CP02 CARPET PAD,                        ! Name
  VeryRough,                              ! Roughness
  0.21648,                                ! Thermal Resistance {m2-K/W}
  0.9,                                    ! Thermal Absorptance
  0.7,                                    ! Solar Absorptance
  0.8;                                    ! Visible Absorptance

