
OS:Version,
  {7d59c3ed-13af-4fd0-8fc1-19767f32d0ea}, ! Handle
  0.9.3;                                  ! Version Identifier

OS:ComponentCost:LineItem,
  {42c1d66d-3c84-4ccd-b81d-12f75e9376c4}, ! Handle
  90.1-1999 Nonres B12 Roof Metal Building, ! Name
  ,                                       ! Type
  Construction,                           ! Line Item Type
  90.1-1999 Nonres B12 Roof Metal Building, ! Item Name
  ,                                       ! Object End Use Key
  ,                                       ! Quantity {dimensionless}
  38.206,                                 ! Material Cost {$}
  CostPerArea;                            ! Material Cost Units

OS:Construction,
  {df81b074-a717-4258-af24-9ee16925fd10}, ! Handle
  90.1-1999 Nonres B12 Roof Metal Building, ! Name
  ,                                       ! Surface Rendering Name
  {21a14de5-68d7-40e9-ae58-048eca6cd535}, ! Layer 1
  {ff9076d0-2324-4f62-a326-af11bfa5a5b1}; ! Layer 2

OS:Material,
  {21a14de5-68d7-40e9-ae58-048eca6cd535}, ! Handle
  Metal Roofing,                          ! Name
  MediumSmooth,                           ! Roughness
  0.001524,                               ! Thickness {m}
  45.006,                                 ! Conductivity {W/m-K}
  7680,                                   ! Density {kg/m3}
  418.4,                                  ! Specific Heat {J/kg-K}
  0.9,                                    ! Thermal Absorptance
  0.7,                                    ! Solar Absorptance
  0.3;                                    ! Visible Absorptance

OS:Material,
  {ff9076d0-2324-4f62-a326-af11bfa5a5b1}, ! Handle
  Roof Insulation [1],                    ! Name
  MediumRough,                            ! Roughness
  0.123533,                               ! Thickness {m}
  0.049,                                  ! Conductivity {W/m-K}
  265,                                    ! Density {kg/m3}
  836.8,                                  ! Specific Heat {J/kg-K}
  0.9,                                    ! Thermal Absorptance
  0.7,                                    ! Solar Absorptance
  0.7;                                    ! Visible Absorptance

