
OS:Version,
  {6dfebf9e-001d-4872-9ed7-94eb3ddc97af}, ! Handle
  0.9.3;                                  ! Version Identifier

OS:Construction,
  {7a93efce-c48a-4a8c-a161-db074e8dcefe}, ! Handle
  90.1-2004 Res 6B Ext Slab Unheated - 8in Slab without Carpet, ! Name
  ,                                       ! Surface Rendering Name
  {3975d172-5911-4fd9-b2d2-70eede389d96}; ! Layer 1

OS:Material,
  {3975d172-5911-4fd9-b2d2-70eede389d96}, ! Handle
  MAT-CC05 8 HW CONCRETE,                 ! Name
  Rough,                                  ! Roughness
  0.20321,                                ! Thickness {m}
  1.311,                                  ! Conductivity {W/m-K}
  2240,                                   ! Density {kg/m3}
  836.8,                                  ! Specific Heat {J/kg-K}
  0.9,                                    ! Thermal Absorptance
  0.7,                                    ! Solar Absorptance
  0.7;                                    ! Visible Absorptance

OS:ComponentCost:LineItem,
  {705d8aee-3c21-4872-95a4-5024cfc0add1}, ! Handle
  90.1-2004 Res 6B Ext Slab Unheated - 8in Slab without Carpet, ! Name
  ,                                       ! Type
  Construction,                           ! Line Item Type
  90.1-2004 Res 6B Ext Slab Unheated - 8in Slab without Carpet, ! Item Name
  ,                                       ! Object End Use Key
  ,                                       ! Quantity {dimensionless}
  45.52,                                  ! Material Cost {$}
  CostPerArea;                            ! Material Cost Units

