
OS:Version,
  {444a2fd6-57f4-4d44-b3b1-c91e3a93dcb8}, ! Handle
  0.9.3;                                  ! Version Identifier

OS:Construction,
  {42800d84-496a-47c5-8481-bcdbfc3f265b}, ! Handle
  90.1-1999 Res B8 Ext Slab Unheated - 8in Slab with Carpet, ! Name
  ,                                       ! Surface Rendering Name
  {137affa3-9b5a-41a1-9300-f60a0ed877b5}, ! Layer 1
  {c1f26bff-fd0a-42b1-9720-5d27ea437179}; ! Layer 2

OS:Material,
  {137affa3-9b5a-41a1-9300-f60a0ed877b5}, ! Handle
  MAT-CC05 8 HW CONCRETE,                 ! Name
  Rough,                                  ! Roughness
  0.20321,                                ! Thickness {m}
  1.311,                                  ! Conductivity {W/m-K}
  2240,                                   ! Density {kg/m3}
  836.8,                                  ! Specific Heat {J/kg-K}
  0.9,                                    ! Thermal Absorptance
  0.7,                                    ! Solar Absorptance
  0.7;                                    ! Visible Absorptance

OS:Material:NoMass,
  {c1f26bff-fd0a-42b1-9720-5d27ea437179}, ! Handle
  CP02 CARPET PAD,                        ! Name
  VeryRough,                              ! Roughness
  0.21648,                                ! Thermal Resistance {m2-K/W}
  0.9,                                    ! Thermal Absorptance
  0.7,                                    ! Solar Absorptance
  0.8;                                    ! Visible Absorptance

OS:ComponentCost:LineItem,
  {bd605724-c498-48c4-a4aa-a9a475104c78}, ! Handle
  90.1-1999 Res B8 Ext Slab Unheated - 8in Slab with Carpet, ! Name
  ,                                       ! Type
  Construction,                           ! Line Item Type
  90.1-1999 Res B8 Ext Slab Unheated - 8in Slab with Carpet, ! Item Name
  ,                                       ! Object End Use Key
  ,                                       ! Quantity {dimensionless}
  45.52,                                  ! Material Cost {$}
  CostPerArea;                            ! Material Cost Units

