
OS:Version,
  {5964783a-6a27-4630-80c4-ad0411a770da}, ! Handle
  0.9.3;                                  ! Version Identifier

OS:Material,
  {8bb16de8-3c6d-4bb5-8e0a-43e5729b0a00}, ! Handle
  Wall Insulation,                        ! Name
  MediumRough,                            ! Roughness
  0.0598725,                              ! Thickness {m}
  0.045,                                  ! Conductivity {W/m-K}
  265,                                    ! Density {kg/m3}
  836.8,                                  ! Specific Heat {J/kg-K}
  0.9,                                    ! Thermal Absorptance
  0.7,                                    ! Solar Absorptance
  0.7;                                    ! Visible Absorptance

OS:Material,
  {05f64478-98b7-4dc6-9419-f9829b2a425f}, ! Handle
  Metal Siding,                           ! Name
  Smooth,                                 ! Roughness
  0.0015,                                 ! Thickness {m}
  44.96,                                  ! Conductivity {W/m-K}
  7688.86,                                ! Density {kg/m3}
  410,                                    ! Specific Heat {J/kg-K}
  0.9,                                    ! Thermal Absorptance
  0.2,                                    ! Solar Absorptance
  0.2;                                    ! Visible Absorptance

OS:Construction,
  {de576924-2cae-4776-95d6-7a59d0acd135}, ! Handle
  90.1-2001 Nonres B20 Ext Wall Metal Building, ! Name
  ,                                       ! Surface Rendering Name
  {05f64478-98b7-4dc6-9419-f9829b2a425f}, ! Layer 1
  {8bb16de8-3c6d-4bb5-8e0a-43e5729b0a00}, ! Layer 2
  {74657bad-89be-4a4a-95e8-5951e0567216}; ! Layer 3

OS:Material,
  {74657bad-89be-4a4a-95e8-5951e0567216}, ! Handle
  1/2IN Gypsum,                           ! Name
  Smooth,                                 ! Roughness
  0.01271,                                ! Thickness {m}
  0.16,                                   ! Conductivity {W/m-K}
  784.9,                                  ! Density {kg/m3}
  830,                                    ! Specific Heat {J/kg-K}
  0.9,                                    ! Thermal Absorptance
  0.92,                                   ! Solar Absorptance
  0.92;                                   ! Visible Absorptance

OS:ComponentCost:LineItem,
  {51733094-8173-463c-b841-e86e45ede849}, ! Handle
  90.1-2001 Nonres B20 Ext Wall Metal Building, ! Name
  ,                                       ! Type
  Construction,                           ! Line Item Type
  90.1-2001 Nonres B20 Ext Wall Metal Building, ! Item Name
  ,                                       ! Object End Use Key
  ,                                       ! Quantity {dimensionless}
  98.78,                                  ! Material Cost {$}
  CostPerArea;                            ! Material Cost Units

