
OS:Version,
  {d36423f5-a79d-41f4-a0a0-cbd5440cbe47}, ! Handle
  0.9.3;                                  ! Version Identifier

OS:Construction,
  {b0b56609-13cc-479d-a49b-78c5338be9aa}, ! Handle
  90.1-2001 Nonres B20 Ext Wall Metal Building, ! Name
  ,                                       ! Surface Rendering Name
  {1985f3c0-0a63-4739-8e1f-d57086e341f5}, ! Layer 1
  {a083b876-4ffd-40f6-8e88-2b4e3e1709a6}, ! Layer 2
  {d0f78589-3cc0-4f5c-aeca-af790ecc55f0}; ! Layer 3

OS:Material,
  {1985f3c0-0a63-4739-8e1f-d57086e341f5}, ! Handle
  Metal Siding,                           ! Name
  Smooth,                                 ! Roughness
  0.0015,                                 ! Thickness {m}
  44.96,                                  ! Conductivity {W/m-K}
  7688.86,                                ! Density {kg/m3}
  410,                                    ! Specific Heat {J/kg-K}
  0.9,                                    ! Thermal Absorptance
  0.2,                                    ! Solar Absorptance
  0.2;                                    ! Visible Absorptance

OS:Material,
  {a083b876-4ffd-40f6-8e88-2b4e3e1709a6}, ! Handle
  Wall Insulation,                        ! Name
  MediumRough,                            ! Roughness
  0.0598725,                              ! Thickness {m}
  0.045,                                  ! Conductivity {W/m-K}
  265,                                    ! Density {kg/m3}
  836.8,                                  ! Specific Heat {J/kg-K}
  0.9,                                    ! Thermal Absorptance
  0.7,                                    ! Solar Absorptance
  0.7;                                    ! Visible Absorptance

OS:Material,
  {d0f78589-3cc0-4f5c-aeca-af790ecc55f0}, ! Handle
  1/2IN Gypsum,                           ! Name
  Smooth,                                 ! Roughness
  0.01271,                                ! Thickness {m}
  0.16,                                   ! Conductivity {W/m-K}
  784.9,                                  ! Density {kg/m3}
  830,                                    ! Specific Heat {J/kg-K}
  0.9,                                    ! Thermal Absorptance
  0.92,                                   ! Solar Absorptance
  0.92;                                   ! Visible Absorptance

OS:ComponentCost:LineItem,
  {ec053627-adac-4ef0-9f55-6a3428fa8850}, ! Handle
  90.1-2001 Nonres B20 Ext Wall Metal Building, ! Name
  ,                                       ! Type
  Construction,                           ! Line Item Type
  90.1-2001 Nonres B20 Ext Wall Metal Building, ! Item Name
  ,                                       ! Object End Use Key
  ,                                       ! Quantity {dimensionless}
  98.78,                                  ! Material Cost {$}
  CostPerArea;                            ! Material Cost Units

OS:ComponentData,
  {14fde329-2970-4f41-baaa-e3cb546e3919}, ! Handle
  Component Data 1,                       ! Name
  {ef4056a9-481e-4d35-aff2-abaead3a9624}, ! UUID
  {7e7c238e-cd78-4744-9f1f-9bb9faf6478f}, ! Version UUID
  1363981400,                             ! Creation Timestamp
  1363981400,                             ! Version Timestamp
  {b0b56609-13cc-479d-a49b-78c5338be9aa}, ! Name of Object 1
  {1985f3c0-0a63-4739-8e1f-d57086e341f5}, ! Name of Object 2
  {a083b876-4ffd-40f6-8e88-2b4e3e1709a6}, ! Name of Object 3
  {d0f78589-3cc0-4f5c-aeca-af790ecc55f0}, ! Name of Object 4
  {ec053627-adac-4ef0-9f55-6a3428fa8850}; ! Name of Object 5

