
OS:Version,
  {33cc5f0a-7438-4528-84d7-1eafd2c6068e}, ! Handle
  0.9.3;                                  ! Version Identifier

OS:Construction,
  {c96571fe-4ec5-4b43-8a3b-b4993faf05aa}, ! Handle
  90.1-2001 Nonres B23 Window Fixed,      ! Name
  ,                                       ! Surface Rendering Name
  {c7260a23-cd68-439a-be14-b2367e464c82}; ! Layer 1

OS:WindowMaterial:Glazing,
  {c7260a23-cd68-439a-be14-b2367e464c82}, ! Handle
  Theoretical Glass [44],                 ! Name
  SpectralAverage,                        ! Optical Data Type
  ,                                       ! Window Glass Spectral Data Set Name
  0.003,                                  ! Thickness {m}
  0.455617,                               ! Solar Transmittance at Normal Incidence
  0.494383,                               ! Front Side Solar Reflectance at Normal Incidence
  0.494383,                               ! Back Side Solar Reflectance at Normal Incidence
  0.493419,                               ! Visible Transmittance at Normal Incidence
  0.456581,                               ! Front Side Visible Reflectance at Normal Incidence
  0.456581,                               ! Back Side Visible Reflectance at Normal Incidence
  0,                                      ! Infrared Transmittance at Normal Incidence
  0.9,                                    ! Front Side Infrared Hemispherical Emissivity
  0.9,                                    ! Back Side Infrared Hemispherical Emissivity
  0.00882224;                             ! Conductivity {W/m-K}

OS:ComponentCost:LineItem,
  {d8305655-4743-441a-b071-e0e64b579649}, ! Handle
  90.1-2001 Nonres B23 Window Fixed,      ! Name
  ,                                       ! Type
  Construction,                           ! Line Item Type
  90.1-2001 Nonres B23 Window Fixed,      ! Item Name
  ,                                       ! Object End Use Key
  ,                                       ! Quantity {dimensionless}
  619.19,                                 ! Material Cost {$}
  CostPerArea;                            ! Material Cost Units

