
OS:Version,
  {9ce7866b-af9f-40df-8dd8-89daf90890ba}, ! Handle
  0.9.3;                                  ! Version Identifier

OS:Construction,
  {86de4645-baa9-43a3-8352-08c2349852b8}, ! Handle
  90.1-2001 Res B1 Ext Wall Metal Building, ! Name
  ,                                       ! Surface Rendering Name
  {aaed0d0c-64e5-4979-9c98-6a2c7704f5a2}, ! Layer 1
  {8119b6c4-d193-410d-a2ce-d3346b083197}, ! Layer 2
  {95e9e43b-17c2-46e9-b30e-9edac408ce89}; ! Layer 3

OS:Material,
  {aaed0d0c-64e5-4979-9c98-6a2c7704f5a2}, ! Handle
  Metal Siding,                           ! Name
  Smooth,                                 ! Roughness
  0.0015,                                 ! Thickness {m}
  44.96,                                  ! Conductivity {W/m-K}
  7688.86,                                ! Density {kg/m3}
  410,                                    ! Specific Heat {J/kg-K}
  0.9,                                    ! Thermal Absorptance
  0.2,                                    ! Solar Absorptance
  0.2;                                    ! Visible Absorptance

OS:Material,
  {8119b6c4-d193-410d-a2ce-d3346b083197}, ! Handle
  Wall Insulation,                        ! Name
  MediumRough,                            ! Roughness
  0.0598725,                              ! Thickness {m}
  0.045,                                  ! Conductivity {W/m-K}
  265,                                    ! Density {kg/m3}
  836.8,                                  ! Specific Heat {J/kg-K}
  0.9,                                    ! Thermal Absorptance
  0.7,                                    ! Solar Absorptance
  0.7;                                    ! Visible Absorptance

OS:Material,
  {95e9e43b-17c2-46e9-b30e-9edac408ce89}, ! Handle
  1/2IN Gypsum,                           ! Name
  Smooth,                                 ! Roughness
  0.01271,                                ! Thickness {m}
  0.16,                                   ! Conductivity {W/m-K}
  784.9,                                  ! Density {kg/m3}
  830,                                    ! Specific Heat {J/kg-K}
  0.9,                                    ! Thermal Absorptance
  0.92,                                   ! Solar Absorptance
  0.92;                                   ! Visible Absorptance

OS:ComponentCost:LineItem,
  {21daacd9-aa0a-4211-8a1b-f289023674f7}, ! Handle
  90.1-2001 Res B1 Ext Wall Metal Building, ! Name
  ,                                       ! Type
  Construction,                           ! Line Item Type
  90.1-2001 Res B1 Ext Wall Metal Building, ! Item Name
  ,                                       ! Object End Use Key
  ,                                       ! Quantity {dimensionless}
  98.78,                                  ! Material Cost {$}
  CostPerArea;                            ! Material Cost Units

