
OS:Version,
  {71434ee5-aae6-4b4c-ab09-6decec369632}, ! Handle
  0.9.3;                                  ! Version Identifier

OS:Construction,
  {418f3417-3c47-4851-81d5-513596db18be}, ! Handle
  90.1-1999 Res B11 Int Wall,             ! Name
  ,                                       ! Surface Rendering Name
  {34a7cab0-85b5-46e1-80bd-edda66228c37}, ! Layer 1
  {34a7cab0-85b5-46e1-80bd-edda66228c37}; ! Layer 2

OS:Material,
  {34a7cab0-85b5-46e1-80bd-edda66228c37}, ! Handle
  GP01 1/2 GYPSUM,                        ! Name
  Smooth,                                 ! Roughness
  0.01271,                                ! Thickness {m}
  0.16,                                   ! Conductivity {W/m-K}
  800,                                    ! Density {kg/m3}
  1090,                                   ! Specific Heat {J/kg-K}
  0.9,                                    ! Thermal Absorptance
  0.7,                                    ! Solar Absorptance
  0.5;                                    ! Visible Absorptance

OS:ComponentCost:LineItem,
  {7a8af83b-42fc-414e-aaec-e9ba2963ddfd}, ! Handle
  90.1-1999 Res B11 Int Wall,             ! Name
  ,                                       ! Type
  Construction,                           ! Line Item Type
  90.1-1999 Res B11 Int Wall,             ! Item Name
  ,                                       ! Object End Use Key
  ,                                       ! Quantity {dimensionless}
  0,                                      ! Material Cost {$}
  CostPerArea;                            ! Material Cost Units

OS:ComponentData,
  {65efbe1a-1473-4e20-b822-bad24f4b7110}, ! Handle
  Component Data 1,                       ! Name
  {0208ab29-632c-446d-80be-6b09c2613b64}, ! UUID
  {7f7733f3-1350-453a-94e6-1a20727bc20f}, ! Version UUID
  1363981209,                             ! Creation Timestamp
  1363981209,                             ! Version Timestamp
  {418f3417-3c47-4851-81d5-513596db18be}, ! Name of Object 1
  {34a7cab0-85b5-46e1-80bd-edda66228c37}, ! Name of Object 2
  {7a8af83b-42fc-414e-aaec-e9ba2963ddfd}; ! Name of Object 3

