
OS:Version,
  {293d9435-f06b-4312-9233-17ea8ae814ff}, ! Handle
  0.9.3;                                  ! Version Identifier

OS:Construction,
  {cb749464-59b4-4a30-85b9-3a2ca670d50c}, ! Handle
  90.1-1999 Nonres B20 Skylight without Curb, ! Name
  ,                                       ! Surface Rendering Name
  {48b3296f-d5c7-4535-a471-1ee81b6efeec}; ! Layer 1

OS:WindowMaterial:Glazing,
  {48b3296f-d5c7-4535-a471-1ee81b6efeec}, ! Handle
  Theoretical Glass [38],                 ! Name
  SpectralAverage,                        ! Optical Data Type
  ,                                       ! Window Glass Spectral Data Set Name
  0.003,                                  ! Thickness {m}
  0.670707,                               ! Solar Transmittance at Normal Incidence
  0.279293,                               ! Front Side Solar Reflectance at Normal Incidence
  0.279293,                               ! Back Side Solar Reflectance at Normal Incidence
  0.754945,                               ! Visible Transmittance at Normal Incidence
  0.195055,                               ! Front Side Visible Reflectance at Normal Incidence
  0.195055,                               ! Back Side Visible Reflectance at Normal Incidence
  0,                                      ! Infrared Transmittance at Normal Incidence
  0.9,                                    ! Front Side Infrared Hemispherical Emissivity
  0.9,                                    ! Back Side Infrared Hemispherical Emissivity
  0.03026;                                ! Conductivity {W/m-K}

OS:ComponentCost:LineItem,
  {7789f19c-bbce-4480-9637-68d314d057df}, ! Handle
  90.1-1999 Nonres B20 Skylight without Curb, ! Name
  ,                                       ! Type
  Construction,                           ! Line Item Type
  90.1-1999 Nonres B20 Skylight without Curb, ! Item Name
  ,                                       ! Object End Use Key
  ,                                       ! Quantity {dimensionless}
  502.229,                                ! Material Cost {$}
  CostPerArea;                            ! Material Cost Units

