
OS:Version,
  {c65188aa-e859-4424-aa2b-a60b6e40c63f}, ! Handle
  0.9.3;                                  ! Version Identifier

OS:ComponentCost:LineItem,
  {adbc4fe5-2f92-4831-94ec-62adf88e5bb6}, ! Handle
  90.1 Windows Window Fixed 2516 Vnl-HptMpr-Std-Clr, ! Name
  ,                                       ! Type
  Construction,                           ! Line Item Type
  90.1 Windows Window Fixed 2516 Vnl-HptMpr-Std-Clr, ! Item Name
  ,                                       ! Object End Use Key
  ,                                       ! Quantity {dimensionless}
  0,                                      ! Material Cost {$}
  CostPerArea;                            ! Material Cost Units

OS:Construction,
  {b6acd43f-9adc-4f76-ab71-cb27d6202cc3}, ! Handle
  90.1 Windows Window Fixed 2516 Vnl-HptMpr-Std-Clr, ! Name
  ,                                       ! Surface Rendering Name
  {17209703-c821-4627-9c86-324fef4cbf03}; ! Layer 1

OS:WindowMaterial:Glazing,
  {17209703-c821-4627-9c86-324fef4cbf03}, ! Handle
  Theoretical Glass [512],                ! Name
  SpectralAverage,                        ! Optical Data Type
  ,                                       ! Window Glass Spectral Data Set Name
  0.003,                                  ! Thickness {m}
  0.24441,                                ! Solar Transmittance at Normal Incidence
  0.70559,                                ! Front Side Solar Reflectance at Normal Incidence
  0.70559,                                ! Back Side Solar Reflectance at Normal Incidence
  0.330719,                               ! Visible Transmittance at Normal Incidence
  0.619281,                               ! Front Side Visible Reflectance at Normal Incidence
  0.619281,                               ! Back Side Visible Reflectance at Normal Incidence
  0,                                      ! Infrared Transmittance at Normal Incidence
  0.9,                                    ! Front Side Infrared Hemispherical Emissivity
  0.9,                                    ! Back Side Infrared Hemispherical Emissivity
  0.0161117;                              ! Conductivity {W/m-K}

