
OS:Version,
  {97d470d5-7dc1-458c-864e-b2cccdee9f6f}, ! Handle
  0.9.3;                                  ! Version Identifier

OS:Construction,
  {d4dbc543-498b-4faa-b717-bd8e08166cee}, ! Handle
  90.1-2001 Res B7 Ext Slab Unheated - 4in Slab without Carpet, ! Name
  ,                                       ! Surface Rendering Name
  {67c455b3-f452-4ad3-8da6-2b2af2b6f24f}; ! Layer 1

OS:Material,
  {67c455b3-f452-4ad3-8da6-2b2af2b6f24f}, ! Handle
  MAT-CC05 4 HW CONCRETE,                 ! Name
  Rough,                                  ! Roughness
  0.1016,                                 ! Thickness {m}
  1.311,                                  ! Conductivity {W/m-K}
  2240,                                   ! Density {kg/m3}
  836.8,                                  ! Specific Heat {J/kg-K}
  0.9,                                    ! Thermal Absorptance
  0.7,                                    ! Solar Absorptance
  0.7;                                    ! Visible Absorptance

OS:ComponentCost:LineItem,
  {487ff69d-f418-460c-a475-1595b189e74b}, ! Handle
  90.1-2001 Res B7 Ext Slab Unheated - 4in Slab without Carpet, ! Name
  ,                                       ! Type
  Construction,                           ! Line Item Type
  90.1-2001 Res B7 Ext Slab Unheated - 4in Slab without Carpet, ! Item Name
  ,                                       ! Object End Use Key
  ,                                       ! Quantity {dimensionless}
  45.52,                                  ! Material Cost {$}
  CostPerArea;                            ! Material Cost Units

