
OS:Version,
  {c823696d-8c55-42f1-bd14-bf135a85c246}, ! Handle
  0.9.3;                                  ! Version Identifier

OS:Material,
  {1ba198bf-97dd-4f2a-95d3-3dbac6dc3a5f}, ! Handle
  Roof Insulation [1],                    ! Name
  MediumRough,                            ! Roughness
  0.123533,                               ! Thickness {m}
  0.049,                                  ! Conductivity {W/m-K}
  265,                                    ! Density {kg/m3}
  836.8,                                  ! Specific Heat {J/kg-K}
  0.9,                                    ! Thermal Absorptance
  0.7,                                    ! Solar Absorptance
  0.7;                                    ! Visible Absorptance

OS:ComponentCost:LineItem,
  {cdb7b884-8017-4b77-9ed3-b0592bda19a4}, ! Handle
  AEDG-SmOffice 1A Roof Metal Building,   ! Name
  ,                                       ! Type
  Construction,                           ! Line Item Type
  AEDG-SmOffice 1A Roof Metal Building,   ! Item Name
  ,                                       ! Object End Use Key
  ,                                       ! Quantity {dimensionless}
  38.206,                                 ! Material Cost {$}
  CostPerArea;                            ! Material Cost Units

OS:Material,
  {7ec67e8b-408b-422b-bda4-41c6adb3579d}, ! Handle
  Metal Roofing,                          ! Name
  MediumSmooth,                           ! Roughness
  0.001524,                               ! Thickness {m}
  45.006,                                 ! Conductivity {W/m-K}
  7680,                                   ! Density {kg/m3}
  418.4,                                  ! Specific Heat {J/kg-K}
  0.9,                                    ! Thermal Absorptance
  0.7,                                    ! Solar Absorptance
  0.3;                                    ! Visible Absorptance

OS:Construction,
  {914ba6bc-973d-4b78-8251-338549bc9f12}, ! Handle
  AEDG-SmOffice 1A Roof Metal Building,   ! Name
  ,                                       ! Surface Rendering Name
  {7ec67e8b-408b-422b-bda4-41c6adb3579d}, ! Layer 1
  {1ba198bf-97dd-4f2a-95d3-3dbac6dc3a5f}; ! Layer 2

