
OS:Version,
  {3c4592b2-745f-4415-b5aa-421ff1167e41}, ! Handle
  0.9.3;                                  ! Version Identifier

OS:Construction,
  {969f48d6-7f43-4cf7-8104-999597f53490}, ! Handle
  AEDG-SmOffice 1A Roof Metal Building,   ! Name
  ,                                       ! Surface Rendering Name
  {143bb59e-f9b6-487f-8309-866f495a8f11}, ! Layer 1
  {e8175c06-e787-4687-8b36-b86ec6de9cd9}; ! Layer 2

OS:Material,
  {143bb59e-f9b6-487f-8309-866f495a8f11}, ! Handle
  Metal Roofing,                          ! Name
  MediumSmooth,                           ! Roughness
  0.001524,                               ! Thickness {m}
  45.006,                                 ! Conductivity {W/m-K}
  7680,                                   ! Density {kg/m3}
  418.4,                                  ! Specific Heat {J/kg-K}
  0.9,                                    ! Thermal Absorptance
  0.7,                                    ! Solar Absorptance
  0.3;                                    ! Visible Absorptance

OS:Material,
  {e8175c06-e787-4687-8b36-b86ec6de9cd9}, ! Handle
  Roof Insulation [1],                    ! Name
  MediumRough,                            ! Roughness
  0.123533,                               ! Thickness {m}
  0.049,                                  ! Conductivity {W/m-K}
  265,                                    ! Density {kg/m3}
  836.8,                                  ! Specific Heat {J/kg-K}
  0.9,                                    ! Thermal Absorptance
  0.7,                                    ! Solar Absorptance
  0.7;                                    ! Visible Absorptance

OS:ComponentCost:LineItem,
  {1f94d8a2-9cbb-46be-8fc2-999a760aafa9}, ! Handle
  AEDG-SmOffice 1A Roof Metal Building,   ! Name
  ,                                       ! Type
  Construction,                           ! Line Item Type
  AEDG-SmOffice 1A Roof Metal Building,   ! Item Name
  ,                                       ! Object End Use Key
  ,                                       ! Quantity {dimensionless}
  38.206,                                 ! Material Cost {$}
  CostPerArea;                            ! Material Cost Units

OS:ComponentData,
  {f97c4fcd-b03b-47bf-a004-a3489802f86e}, ! Handle
  Component Data 1,                       ! Name
  {72d557d3-9cf5-4185-98d6-a212b6bf68ab}, ! UUID
  {0e113c6d-a7be-4e78-b1fb-c377ebf49c69}, ! Version UUID
  1363981937,                             ! Creation Timestamp
  1363981937,                             ! Version Timestamp
  {969f48d6-7f43-4cf7-8104-999597f53490}, ! Name of Object 1
  {143bb59e-f9b6-487f-8309-866f495a8f11}, ! Name of Object 2
  {e8175c06-e787-4687-8b36-b86ec6de9cd9}, ! Name of Object 3
  {1f94d8a2-9cbb-46be-8fc2-999a760aafa9}; ! Name of Object 4

