
OS:Version,
  {ed5cb0d9-1881-4e28-a684-fa515b7c05b8}, ! Handle
  0.9.3;                                  ! Version Identifier

OS:ComponentCost:LineItem,
  {847c47b2-7491-490c-8210-598ebe63f3db}, ! Handle
  Title 24-2008 Nonres 9 Window Fixed,    ! Name
  ,                                       ! Type
  Construction,                           ! Line Item Type
  Title 24-2008 Nonres 9 Window Fixed,    ! Item Name
  ,                                       ! Object End Use Key
  ,                                       ! Quantity {dimensionless}
  523.103,                                ! Material Cost {$}
  CostPerArea;                            ! Material Cost Units

OS:Construction,
  {b81fe57e-5b5f-46a3-8b8b-72fe87976fad}, ! Handle
  Title 24-2008 Nonres 9 Window Fixed,    ! Name
  ,                                       ! Surface Rendering Name
  {e1c8f622-a7b1-4287-95ce-c3c4817c422e}; ! Layer 1

OS:WindowMaterial:Glazing,
  {e1c8f622-a7b1-4287-95ce-c3c4817c422e}, ! Handle
  Theoretical Glass [683],                ! Name
  SpectralAverage,                        ! Optical Data Type
  ,                                       ! Window Glass Spectral Data Set Name
  0.003,                                  ! Thickness {m}
  0.331198,                               ! Solar Transmittance at Normal Incidence
  0.618802,                               ! Front Side Solar Reflectance at Normal Incidence
  0.618802,                               ! Back Side Solar Reflectance at Normal Incidence
  0.34081,                                ! Visible Transmittance at Normal Incidence
  0.60919,                                ! Front Side Visible Reflectance at Normal Incidence
  0.60919,                                ! Back Side Visible Reflectance at Normal Incidence
  0,                                      ! Infrared Transmittance at Normal Incidence
  0.9,                                    ! Front Side Infrared Hemispherical Emissivity
  0.9,                                    ! Back Side Infrared Hemispherical Emissivity
  0.0406315;                              ! Conductivity {W/m-K}

