
OS:Version,
  {7ec856ac-908b-4548-bc69-d3801dc3577e}, ! Handle
  0.9.3;                                  ! Version Identifier

OS:Construction,
  {fa0e642c-5d17-4d9c-a795-fb4b63a50cbd}, ! Handle
  90.1-1999 Nonres B24 Ext Wall Metal Building, ! Name
  ,                                       ! Surface Rendering Name
  {1a1c0c2f-aab8-45d7-ba73-225c53dcd1bf}, ! Layer 1
  {7a418b44-ad0b-4b76-85d9-6d01cb435e2d}, ! Layer 2
  {9a3fc7fb-3302-433f-a5c6-22d68e04392f}; ! Layer 3

OS:Material,
  {1a1c0c2f-aab8-45d7-ba73-225c53dcd1bf}, ! Handle
  Metal Siding,                           ! Name
  Smooth,                                 ! Roughness
  0.0015,                                 ! Thickness {m}
  44.96,                                  ! Conductivity {W/m-K}
  7688.86,                                ! Density {kg/m3}
  410,                                    ! Specific Heat {J/kg-K}
  0.9,                                    ! Thermal Absorptance
  0.2,                                    ! Solar Absorptance
  0.2;                                    ! Visible Absorptance

OS:Material,
  {7a418b44-ad0b-4b76-85d9-6d01cb435e2d}, ! Handle
  Wall Insulation [9],                    ! Name
  MediumRough,                            ! Roughness
  0.128642,                               ! Thickness {m}
  0.045,                                  ! Conductivity {W/m-K}
  265,                                    ! Density {kg/m3}
  836.8,                                  ! Specific Heat {J/kg-K}
  0.9,                                    ! Thermal Absorptance
  0.7,                                    ! Solar Absorptance
  0.7;                                    ! Visible Absorptance

OS:Material,
  {9a3fc7fb-3302-433f-a5c6-22d68e04392f}, ! Handle
  1/2IN Gypsum,                           ! Name
  Smooth,                                 ! Roughness
  0.01271,                                ! Thickness {m}
  0.16,                                   ! Conductivity {W/m-K}
  784.9,                                  ! Density {kg/m3}
  830,                                    ! Specific Heat {J/kg-K}
  0.9,                                    ! Thermal Absorptance
  0.92,                                   ! Solar Absorptance
  0.92;                                   ! Visible Absorptance

OS:ComponentCost:LineItem,
  {8970d9a6-74b8-44bd-9ae1-2a238f55e22a}, ! Handle
  90.1-1999 Nonres B24 Ext Wall Metal Building, ! Name
  ,                                       ! Type
  Construction,                           ! Line Item Type
  90.1-1999 Nonres B24 Ext Wall Metal Building, ! Item Name
  ,                                       ! Object End Use Key
  ,                                       ! Quantity {dimensionless}
  107.698,                                ! Material Cost {$}
  CostPerArea;                            ! Material Cost Units

