
OS:Version,
  {a0f9b033-dad0-4edb-9d66-c674a4f87b6f}, ! Handle
  0.9.3;                                  ! Version Identifier

OS:Material,
  {447bc9d2-ee0c-4874-bbbb-ad47d12d3db9}, ! Handle
  1/2IN Gypsum,                           ! Name
  Smooth,                                 ! Roughness
  0.01271,                                ! Thickness {m}
  0.16,                                   ! Conductivity {W/m-K}
  784.9,                                  ! Density {kg/m3}
  830,                                    ! Specific Heat {J/kg-K}
  0.9,                                    ! Thermal Absorptance
  0.92,                                   ! Solar Absorptance
  0.92;                                   ! Visible Absorptance

OS:Construction,
  {49b51296-ffb8-4bf6-b651-c1289d191393}, ! Handle
  90.1-2001 Res B13 Ext Wall Steel-Framed, ! Name
  ,                                       ! Surface Rendering Name
  {fc3abffc-de08-44b3-9c62-984badb75273}, ! Layer 1
  {211d103a-fad4-4395-9359-8d8f0ba80fa2}, ! Layer 2
  {447bc9d2-ee0c-4874-bbbb-ad47d12d3db9}; ! Layer 3

OS:Material:NoMass,
  {fc3abffc-de08-44b3-9c62-984badb75273}, ! Handle
  MAT-SHEATH,                             ! Name
  Rough,                                  ! Roughness
  0.36256,                                ! Thermal Resistance {m2-K/W}
  0.9,                                    ! Thermal Absorptance
  0.7,                                    ! Solar Absorptance
  0.7;                                    ! Visible Absorptance

OS:Material,
  {211d103a-fad4-4395-9359-8d8f0ba80fa2}, ! Handle
  Wall Insulation [10],                   ! Name
  MediumRough,                            ! Roughness
  0.0971136,                              ! Thickness {m}
  0.045,                                  ! Conductivity {W/m-K}
  265,                                    ! Density {kg/m3}
  836.8,                                  ! Specific Heat {J/kg-K}
  0.9,                                    ! Thermal Absorptance
  0.7,                                    ! Solar Absorptance
  0.7;                                    ! Visible Absorptance

OS:ComponentCost:LineItem,
  {0a6b29a4-7728-4b33-af8d-0989c12195ea}, ! Handle
  90.1-2001 Res B13 Ext Wall Steel-Framed, ! Name
  ,                                       ! Type
  Construction,                           ! Line Item Type
  90.1-2001 Res B13 Ext Wall Steel-Framed, ! Item Name
  ,                                       ! Object End Use Key
  ,                                       ! Quantity {dimensionless}
  94.657,                                 ! Material Cost {$}
  CostPerArea;                            ! Material Cost Units

