
OS:Version,
  {951681af-4c42-49ab-ac0e-331af269809a}, ! Handle
  0.9.3;                                  ! Version Identifier

OS:Material,
  {95ccd246-3a0e-47af-90a1-73c531177698}, ! Handle
  Metal Decking,                          ! Name
  MediumSmooth,                           ! Roughness
  0.001524,                               ! Thickness {m}
  45.006,                                 ! Conductivity {W/m-K}
  7680,                                   ! Density {kg/m3}
  418.4,                                  ! Specific Heat {J/kg-K}
  0.9,                                    ! Thermal Absorptance
  0.7,                                    ! Solar Absorptance
  0.3;                                    ! Visible Absorptance

OS:ComponentCost:LineItem,
  {2eb4b9fa-ede7-47ae-a8b9-c8c4a718e2ab}, ! Handle
  90.1-1999 Res B16 Roof IEAD,            ! Name
  ,                                       ! Type
  Construction,                           ! Line Item Type
  90.1-1999 Res B16 Roof IEAD,            ! Item Name
  ,                                       ! Object End Use Key
  ,                                       ! Quantity {dimensionless}
  49.208,                                 ! Material Cost {$}
  CostPerArea;                            ! Material Cost Units

OS:Material,
  {5a041c64-045c-4cd2-982a-e89b2a9a8060}, ! Handle
  Roof Insulation,                        ! Name
  MediumRough,                            ! Roughness
  0.124958,                               ! Thickness {m}
  0.049,                                  ! Conductivity {W/m-K}
  265,                                    ! Density {kg/m3}
  836.8,                                  ! Specific Heat {J/kg-K}
  0.9,                                    ! Thermal Absorptance
  0.7,                                    ! Solar Absorptance
  0.7;                                    ! Visible Absorptance

OS:Material,
  {b5d42221-879f-45c6-9d6e-7f8c42b1d83e}, ! Handle
  Roof Membrane,                          ! Name
  VeryRough,                              ! Roughness
  0.0095,                                 ! Thickness {m}
  0.16,                                   ! Conductivity {W/m-K}
  1121.29,                                ! Density {kg/m3}
  1460,                                   ! Specific Heat {J/kg-K}
  0.9,                                    ! Thermal Absorptance
  0.7,                                    ! Solar Absorptance
  0.7;                                    ! Visible Absorptance

OS:Construction,
  {ac263c54-541b-4492-8a5d-7584d7be751b}, ! Handle
  90.1-1999 Res B16 Roof IEAD,            ! Name
  ,                                       ! Surface Rendering Name
  {b5d42221-879f-45c6-9d6e-7f8c42b1d83e}, ! Layer 1
  {5a041c64-045c-4cd2-982a-e89b2a9a8060}, ! Layer 2
  {95ccd246-3a0e-47af-90a1-73c531177698}; ! Layer 3

