
OS:Version,
  {97a835a3-7e14-406b-b151-296bd39b8a68}, ! Handle
  0.9.3;                                  ! Version Identifier

OS:WindowMaterial:Glazing,
  {6b82aa69-1b12-4489-8743-518c62c5e80b}, ! Handle
  Theoretical Glass [111],                ! Name
  SpectralAverage,                        ! Optical Data Type
  ,                                       ! Window Glass Spectral Data Set Name
  0.003,                                  ! Thickness {m}
  0.471791,                               ! Solar Transmittance at Normal Incidence
  0.478209,                               ! Front Side Solar Reflectance at Normal Incidence
  0.478209,                               ! Back Side Solar Reflectance at Normal Incidence
  0.529698,                               ! Visible Transmittance at Normal Incidence
  0.420302,                               ! Front Side Visible Reflectance at Normal Incidence
  0.420302,                               ! Back Side Visible Reflectance at Normal Incidence
  0,                                      ! Infrared Transmittance at Normal Incidence
  0.9,                                    ! Front Side Infrared Hemispherical Emissivity
  0.9,                                    ! Back Side Infrared Hemispherical Emissivity
  0.0214562;                              ! Conductivity {W/m-K}

OS:Construction,
  {ab918a9e-7f48-461d-bdca-0331dc27f7f7}, ! Handle
  90.1-1999 Res B23 Skylight without Curb, ! Name
  ,                                       ! Surface Rendering Name
  {6b82aa69-1b12-4489-8743-518c62c5e80b}; ! Layer 1

OS:ComponentCost:LineItem,
  {99af0f9d-94c6-4503-bcc3-0f6b3133c6af}, ! Handle
  90.1-1999 Res B23 Skylight without Curb, ! Name
  ,                                       ! Type
  Construction,                           ! Line Item Type
  90.1-1999 Res B23 Skylight without Curb, ! Item Name
  ,                                       ! Object End Use Key
  ,                                       ! Quantity {dimensionless}
  524.932,                                ! Material Cost {$}
  CostPerArea;                            ! Material Cost Units

