
OS:Version,
  {45c70515-0456-42c0-ac44-e7ce4446eb83}, ! Handle
  0.9.3;                                  ! Version Identifier

OS:Construction,
  {1823a38d-a1ae-431f-b013-ee23c42d288a}, ! Handle
  189.1-2009 Res 3A Ext Slab Unheated - 8in Slab with Carpet, ! Name
  ,                                       ! Surface Rendering Name
  {b3dfab8c-fa05-4f89-9034-6ebe0662d419}, ! Layer 1
  {1f5eb9a2-6dd0-4cd2-99b1-21d8ebd2ee7c}; ! Layer 2

OS:Material,
  {b3dfab8c-fa05-4f89-9034-6ebe0662d419}, ! Handle
  MAT-CC05 8 HW CONCRETE,                 ! Name
  Rough,                                  ! Roughness
  0.20321,                                ! Thickness {m}
  1.311,                                  ! Conductivity {W/m-K}
  2240,                                   ! Density {kg/m3}
  836.8,                                  ! Specific Heat {J/kg-K}
  0.9,                                    ! Thermal Absorptance
  0.7,                                    ! Solar Absorptance
  0.7;                                    ! Visible Absorptance

OS:Material:NoMass,
  {1f5eb9a2-6dd0-4cd2-99b1-21d8ebd2ee7c}, ! Handle
  CP02 CARPET PAD,                        ! Name
  VeryRough,                              ! Roughness
  0.21648,                                ! Thermal Resistance {m2-K/W}
  0.9,                                    ! Thermal Absorptance
  0.7,                                    ! Solar Absorptance
  0.8;                                    ! Visible Absorptance

OS:ComponentCost:LineItem,
  {49b31ea9-95d1-4fa1-9dcb-eb12560dcf48}, ! Handle
  189.1-2009 Res 3A Ext Slab Unheated - 8in Slab with Carpet, ! Name
  ,                                       ! Type
  Construction,                           ! Line Item Type
  189.1-2009 Res 3A Ext Slab Unheated - 8in Slab with Carpet, ! Item Name
  ,                                       ! Object End Use Key
  ,                                       ! Quantity {dimensionless}
  45.52,                                  ! Material Cost {$}
  CostPerArea;                            ! Material Cost Units

OS:ComponentData,
  {00f78d3b-313f-4d16-a61b-c8175a1f7e68}, ! Handle
  Component Data 1,                       ! Name
  {46bfce5d-93dc-4fd7-abf9-0158448097d3}, ! UUID
  {8f3edb12-2960-4ae5-8d16-9ac68c22e9af}, ! Version UUID
  1363980967,                             ! Creation Timestamp
  1363980967,                             ! Version Timestamp
  {1823a38d-a1ae-431f-b013-ee23c42d288a}, ! Name of Object 1
  {b3dfab8c-fa05-4f89-9034-6ebe0662d419}, ! Name of Object 2
  {1f5eb9a2-6dd0-4cd2-99b1-21d8ebd2ee7c}, ! Name of Object 3
  {49b31ea9-95d1-4fa1-9dcb-eb12560dcf48}; ! Name of Object 4

