
OS:Version,
  {69c313d8-9079-47ad-875a-751699d27df1}, ! Handle
  0.9.3;                                  ! Version Identifier

OS:ComponentCost:LineItem,
  {96902ad5-d489-4630-8f18-b9a1a2605420}, ! Handle
  90.1-2001 Nonres B11 Roof Metal Building, ! Name
  ,                                       ! Type
  Construction,                           ! Line Item Type
  90.1-2001 Nonres B11 Roof Metal Building, ! Item Name
  ,                                       ! Object End Use Key
  ,                                       ! Quantity {dimensionless}
  38.206,                                 ! Material Cost {$}
  CostPerArea;                            ! Material Cost Units

OS:Construction,
  {abbfd6d9-86bf-4631-b9fc-f029f856a1db}, ! Handle
  90.1-2001 Nonres B11 Roof Metal Building, ! Name
  ,                                       ! Surface Rendering Name
  {68649ba7-eb5a-495a-8fe4-b8ddc08852eb}, ! Layer 1
  {53054db7-91b4-4099-bf90-62756beb4952}; ! Layer 2

OS:Material,
  {68649ba7-eb5a-495a-8fe4-b8ddc08852eb}, ! Handle
  Metal Roofing,                          ! Name
  MediumSmooth,                           ! Roughness
  0.001524,                               ! Thickness {m}
  45.006,                                 ! Conductivity {W/m-K}
  7680,                                   ! Density {kg/m3}
  418.4,                                  ! Specific Heat {J/kg-K}
  0.9,                                    ! Thermal Absorptance
  0.7,                                    ! Solar Absorptance
  0.3;                                    ! Visible Absorptance

OS:Material,
  {53054db7-91b4-4099-bf90-62756beb4952}, ! Handle
  Roof Insulation [1],                    ! Name
  MediumRough,                            ! Roughness
  0.123533,                               ! Thickness {m}
  0.049,                                  ! Conductivity {W/m-K}
  265,                                    ! Density {kg/m3}
  836.8,                                  ! Specific Heat {J/kg-K}
  0.9,                                    ! Thermal Absorptance
  0.7,                                    ! Solar Absorptance
  0.7;                                    ! Visible Absorptance

