
OS:Version,
  {b66a6c7f-df73-4bbe-9624-cfddaef6837d}, ! Handle
  0.9.3;                                  ! Version Identifier

OS:Material,
  {1355fd6d-7826-41bc-badf-84329b145a82}, ! Handle
  1/2IN Gypsum Bottom,                    ! Name
  Smooth,                                 ! Roughness
  0.01271,                                ! Thickness {m}
  0.16,                                   ! Conductivity {W/m-K}
  784.9,                                  ! Density {kg/m3}
  830,                                    ! Specific Heat {J/kg-K}
  0.9,                                    ! Thermal Absorptance
  0.92,                                   ! Solar Absorptance
  0.92;                                   ! Visible Absorptance

OS:Material,
  {159de3f0-aa15-4b52-9e5e-6099bb6395d6}, ! Handle
  1/2IN Gypsum Top,                       ! Name
  Smooth,                                 ! Roughness
  0.01271,                                ! Thickness {m}
  0.16,                                   ! Conductivity {W/m-K}
  784.9,                                  ! Density {kg/m3}
  830,                                    ! Specific Heat {J/kg-K}
  0.9,                                    ! Thermal Absorptance
  0.92,                                   ! Solar Absorptance
  0.92;                                   ! Visible Absorptance

OS:Material,
  {a5fe6441-094d-4568-b167-44e3c06d156b}, ! Handle
  AtticFloor Insulation [1],              ! Name
  MediumRough,                            ! Roughness
  0.303719,                               ! Thickness {m}
  0.049,                                  ! Conductivity {W/m-K}
  265,                                    ! Density {kg/m3}
  836.8,                                  ! Specific Heat {J/kg-K}
  0.9,                                    ! Thermal Absorptance
  0.7,                                    ! Solar Absorptance
  0.7;                                    ! Visible Absorptance

OS:Construction,
  {ded7154e-26f3-4b9c-8ade-64692646faf3}, ! Handle
  90.1-2004 Nonres 6B Attic Floor,        ! Name
  ,                                       ! Surface Rendering Name
  {159de3f0-aa15-4b52-9e5e-6099bb6395d6}, ! Layer 1
  {a5fe6441-094d-4568-b167-44e3c06d156b}, ! Layer 2
  {1355fd6d-7826-41bc-badf-84329b145a82}; ! Layer 3

OS:ComponentCost:LineItem,
  {484e4b50-4411-4516-8b93-1883737df8c2}, ! Handle
  90.1-2004 Nonres 6B Attic Floor,        ! Name
  ,                                       ! Type
  Construction,                           ! Line Item Type
  90.1-2004 Nonres 6B Attic Floor,        ! Item Name
  ,                                       ! Object End Use Key
  ,                                       ! Quantity {dimensionless}
  35.009,                                 ! Material Cost {$}
  CostPerArea;                            ! Material Cost Units

