
OS:Version,
  {f7845759-cbfa-46e0-a963-b4ec1f510e5f}, ! Handle
  0.9.3;                                  ! Version Identifier

OS:ComponentCost:LineItem,
  {baa5bd8d-e30b-442b-a723-9535765c3e8b}, ! Handle
  189.1-2009 Nonres 4B Ext Wall Metal Building, ! Name
  ,                                       ! Type
  Construction,                           ! Line Item Type
  189.1-2009 Nonres 4B Ext Wall Metal Building, ! Item Name
  ,                                       ! Object End Use Key
  ,                                       ! Quantity {dimensionless}
  110.41,                                 ! Material Cost {$}
  CostPerArea;                            ! Material Cost Units

OS:Material,
  {009b6155-d304-4290-94b5-9e98d8aba381}, ! Handle
  Metal Siding,                           ! Name
  Smooth,                                 ! Roughness
  0.0015,                                 ! Thickness {m}
  44.96,                                  ! Conductivity {W/m-K}
  7688.86,                                ! Density {kg/m3}
  410,                                    ! Specific Heat {J/kg-K}
  0.9,                                    ! Thermal Absorptance
  0.2,                                    ! Solar Absorptance
  0.2;                                    ! Visible Absorptance

OS:Material,
  {da2005ef-44cf-4f29-ba9e-02278a6f1e41}, ! Handle
  Wall Insulation [38],                   ! Name
  MediumRough,                            ! Roughness
  0.139618,                               ! Thickness {m}
  0.045,                                  ! Conductivity {W/m-K}
  265,                                    ! Density {kg/m3}
  836.8,                                  ! Specific Heat {J/kg-K}
  0.9,                                    ! Thermal Absorptance
  0.7,                                    ! Solar Absorptance
  0.7;                                    ! Visible Absorptance

OS:Construction,
  {613fcdeb-ad12-4476-8c58-6a49e669c251}, ! Handle
  189.1-2009 Nonres 4B Ext Wall Metal Building, ! Name
  ,                                       ! Surface Rendering Name
  {009b6155-d304-4290-94b5-9e98d8aba381}, ! Layer 1
  {da2005ef-44cf-4f29-ba9e-02278a6f1e41}, ! Layer 2
  {03ab1998-2a07-4f2e-b33e-c69d4f85ef19}; ! Layer 3

OS:Material,
  {03ab1998-2a07-4f2e-b33e-c69d4f85ef19}, ! Handle
  1/2IN Gypsum,                           ! Name
  Smooth,                                 ! Roughness
  0.01271,                                ! Thickness {m}
  0.16,                                   ! Conductivity {W/m-K}
  784.9,                                  ! Density {kg/m3}
  830,                                    ! Specific Heat {J/kg-K}
  0.9,                                    ! Thermal Absorptance
  0.92,                                   ! Solar Absorptance
  0.92;                                   ! Visible Absorptance

