
OS:Version,
  {063abefb-9df3-4109-8881-4d6c2bab0c00}, ! Handle
  0.9.3;                                  ! Version Identifier

OS:Construction,
  {db8603a6-d1c2-40c2-b68b-5d8a36bf0b9a}, ! Handle
  90.1-1999 Res B3 Ext Wall Mass,         ! Name
  ,                                       ! Surface Rendering Name
  {28d879c9-4520-45bb-b76c-edfd8c798bef}, ! Layer 1
  {3cc64463-8354-4637-ae10-561bbb5a27a1}, ! Layer 2
  {cbeab020-c2db-4736-afb0-4c8d1d3b5f05}, ! Layer 3
  {0d0a9c04-1598-4b3a-baf6-d933d5529b64}; ! Layer 4

OS:Material,
  {28d879c9-4520-45bb-b76c-edfd8c798bef}, ! Handle
  1IN Stucco,                             ! Name
  Smooth,                                 ! Roughness
  0.0253,                                 ! Thickness {m}
  0.6918,                                 ! Conductivity {W/m-K}
  1858,                                   ! Density {kg/m3}
  837,                                    ! Specific Heat {J/kg-K}
  0.9,                                    ! Thermal Absorptance
  0.92,                                   ! Solar Absorptance
  0.92;                                   ! Visible Absorptance

OS:Material,
  {3cc64463-8354-4637-ae10-561bbb5a27a1}, ! Handle
  8IN Concrete HW,                        ! Name
  MediumRough,                            ! Roughness
  0.2033,                                 ! Thickness {m}
  1.7296,                                 ! Conductivity {W/m-K}
  2243,                                   ! Density {kg/m3}
  837,                                    ! Specific Heat {J/kg-K}
  0.9,                                    ! Thermal Absorptance
  0.65,                                   ! Solar Absorptance
  0.65;                                   ! Visible Absorptance

OS:Material,
  {cbeab020-c2db-4736-afb0-4c8d1d3b5f05}, ! Handle
  Wall Insulation [4],                    ! Name
  MediumRough,                            ! Roughness
  0.0338606,                              ! Thickness {m}
  0.0432,                                 ! Conductivity {W/m-K}
  91,                                     ! Density {kg/m3}
  837,                                    ! Specific Heat {J/kg-K}
  0.9,                                    ! Thermal Absorptance
  0.5,                                    ! Solar Absorptance
  0.5;                                    ! Visible Absorptance

OS:Material,
  {0d0a9c04-1598-4b3a-baf6-d933d5529b64}, ! Handle
  1/2IN Gypsum,                           ! Name
  Smooth,                                 ! Roughness
  0.01271,                                ! Thickness {m}
  0.16,                                   ! Conductivity {W/m-K}
  784.9,                                  ! Density {kg/m3}
  830,                                    ! Specific Heat {J/kg-K}
  0.9,                                    ! Thermal Absorptance
  0.92,                                   ! Solar Absorptance
  0.92;                                   ! Visible Absorptance

OS:ComponentCost:LineItem,
  {ea66969b-1f9d-458f-b65a-7bf166942cf7}, ! Handle
  90.1-1999 Res B3 Ext Wall Mass,         ! Name
  ,                                       ! Type
  Construction,                           ! Line Item Type
  90.1-1999 Res B3 Ext Wall Mass,         ! Item Name
  ,                                       ! Object End Use Key
  ,                                       ! Quantity {dimensionless}
  58.897,                                 ! Material Cost {$}
  CostPerArea;                            ! Material Cost Units

