
OS:Version,
  {f92f166a-fd13-4008-b78d-cd4c8aa4c345}, ! Handle
  0.9.3;                                  ! Version Identifier

OS:Material,
  {d32a5215-ee21-45b6-92a5-1522dd4df712}, ! Handle
  Roof Insulation [21],                   ! Name
  MediumRough,                            ! Roughness
  0.210538,                               ! Thickness {m}
  0.049,                                  ! Conductivity {W/m-K}
  265,                                    ! Density {kg/m3}
  836.8,                                  ! Specific Heat {J/kg-K}
  0.9,                                    ! Thermal Absorptance
  0.7,                                    ! Solar Absorptance
  0.7;                                    ! Visible Absorptance

OS:Material,
  {e3e1b8d7-8782-4826-914b-4cd75d4bd617}, ! Handle
  Roof Membrane,                          ! Name
  VeryRough,                              ! Roughness
  0.0095,                                 ! Thickness {m}
  0.16,                                   ! Conductivity {W/m-K}
  1121.29,                                ! Density {kg/m3}
  1460,                                   ! Specific Heat {J/kg-K}
  0.9,                                    ! Thermal Absorptance
  0.7,                                    ! Solar Absorptance
  0.7;                                    ! Visible Absorptance

OS:Construction,
  {4c2dc75f-2f2e-4550-8c25-5153bb257155}, ! Handle
  189.1-2009 Nonres 2A Roof IEAD,         ! Name
  ,                                       ! Surface Rendering Name
  {e3e1b8d7-8782-4826-914b-4cd75d4bd617}, ! Layer 1
  {d32a5215-ee21-45b6-92a5-1522dd4df712}, ! Layer 2
  {8e808c8a-c62d-4f7e-87f2-f5ec1f69d2ce}; ! Layer 3

OS:Material,
  {8e808c8a-c62d-4f7e-87f2-f5ec1f69d2ce}, ! Handle
  Metal Decking,                          ! Name
  MediumSmooth,                           ! Roughness
  0.001524,                               ! Thickness {m}
  45.006,                                 ! Conductivity {W/m-K}
  7680,                                   ! Density {kg/m3}
  418.4,                                  ! Specific Heat {J/kg-K}
  0.9,                                    ! Thermal Absorptance
  0.7,                                    ! Solar Absorptance
  0.3;                                    ! Visible Absorptance

OS:ComponentCost:LineItem,
  {235ed95d-d043-49f3-a697-e4781149e306}, ! Handle
  189.1-2009 Nonres 2A Roof IEAD,         ! Name
  ,                                       ! Type
  Construction,                           ! Line Item Type
  189.1-2009 Nonres 2A Roof IEAD,         ! Item Name
  ,                                       ! Object End Use Key
  ,                                       ! Quantity {dimensionless}
  56.652,                                 ! Material Cost {$}
  CostPerArea;                            ! Material Cost Units

