
OS:Version,
  {70e59c61-4e03-4cee-9a1a-c97f779c0167}, ! Handle
  0.9.3;                                  ! Version Identifier

OS:Construction,
  {17028afa-9ab3-4afe-9304-f1e4690da83d}, ! Handle
  189.1-2009 Nonres 2A Roof IEAD,         ! Name
  ,                                       ! Surface Rendering Name
  {ffa25a9d-5cae-4b80-8407-a48811fa27c9}, ! Layer 1
  {04a7b24a-a781-407b-8067-6816377b6f31}, ! Layer 2
  {c012f64d-081c-45ea-9f23-2c6145770412}; ! Layer 3

OS:Material,
  {ffa25a9d-5cae-4b80-8407-a48811fa27c9}, ! Handle
  Roof Membrane,                          ! Name
  VeryRough,                              ! Roughness
  0.0095,                                 ! Thickness {m}
  0.16,                                   ! Conductivity {W/m-K}
  1121.29,                                ! Density {kg/m3}
  1460,                                   ! Specific Heat {J/kg-K}
  0.9,                                    ! Thermal Absorptance
  0.7,                                    ! Solar Absorptance
  0.7;                                    ! Visible Absorptance

OS:Material,
  {04a7b24a-a781-407b-8067-6816377b6f31}, ! Handle
  Roof Insulation [21],                   ! Name
  MediumRough,                            ! Roughness
  0.210538,                               ! Thickness {m}
  0.049,                                  ! Conductivity {W/m-K}
  265,                                    ! Density {kg/m3}
  836.8,                                  ! Specific Heat {J/kg-K}
  0.9,                                    ! Thermal Absorptance
  0.7,                                    ! Solar Absorptance
  0.7;                                    ! Visible Absorptance

OS:Material,
  {c012f64d-081c-45ea-9f23-2c6145770412}, ! Handle
  Metal Decking,                          ! Name
  MediumSmooth,                           ! Roughness
  0.001524,                               ! Thickness {m}
  45.006,                                 ! Conductivity {W/m-K}
  7680,                                   ! Density {kg/m3}
  418.4,                                  ! Specific Heat {J/kg-K}
  0.9,                                    ! Thermal Absorptance
  0.7,                                    ! Solar Absorptance
  0.3;                                    ! Visible Absorptance

OS:ComponentCost:LineItem,
  {84958fd6-c266-40b2-b613-8788ade60997}, ! Handle
  189.1-2009 Nonres 2A Roof IEAD,         ! Name
  ,                                       ! Type
  Construction,                           ! Line Item Type
  189.1-2009 Nonres 2A Roof IEAD,         ! Item Name
  ,                                       ! Object End Use Key
  ,                                       ! Quantity {dimensionless}
  56.652,                                 ! Material Cost {$}
  CostPerArea;                            ! Material Cost Units

OS:ComponentData,
  {eede8bc7-a70e-448e-aafa-7ec4c80aae8c}, ! Handle
  Component Data 1,                       ! Name
  {b804dbd9-aa44-430d-92dd-4bdd57d8d69e}, ! UUID
  {636e48ab-dc2a-4bc3-a7cf-b8a027c71139}, ! Version UUID
  1363979822,                             ! Creation Timestamp
  1363979822,                             ! Version Timestamp
  {17028afa-9ab3-4afe-9304-f1e4690da83d}, ! Name of Object 1
  {ffa25a9d-5cae-4b80-8407-a48811fa27c9}, ! Name of Object 2
  {04a7b24a-a781-407b-8067-6816377b6f31}, ! Name of Object 3
  {c012f64d-081c-45ea-9f23-2c6145770412}, ! Name of Object 4
  {84958fd6-c266-40b2-b613-8788ade60997}; ! Name of Object 5

