
OS:Version,
  {2812d13e-e5d3-40af-824c-e8476ee9cdd9}, ! Handle
  0.9.3;                                  ! Version Identifier

OS:WindowMaterial:Glazing,
  {8dffdd40-9553-4260-9990-68d2bcc703b8}, ! Handle
  Theoretical Glass [522],                ! Name
  SpectralAverage,                        ! Optical Data Type
  ,                                       ! Window Glass Spectral Data Set Name
  0.003,                                  ! Thickness {m}
  0.226352,                               ! Solar Transmittance at Normal Incidence
  0.723648,                               ! Front Side Solar Reflectance at Normal Incidence
  0.723648,                               ! Back Side Solar Reflectance at Normal Incidence
  0.310844,                               ! Visible Transmittance at Normal Incidence
  0.639156,                               ! Front Side Visible Reflectance at Normal Incidence
  0.639156,                               ! Back Side Visible Reflectance at Normal Incidence
  0,                                      ! Infrared Transmittance at Normal Incidence
  0.9,                                    ! Front Side Infrared Hemispherical Emissivity
  0.9,                                    ! Back Side Infrared Hemispherical Emissivity
  0.00956575;                             ! Conductivity {W/m-K}

OS:ComponentCost:LineItem,
  {e73a9bad-e439-41f6-827b-214ca2257230}, ! Handle
  90.1 Windows Window Fixed 2535 Vnl-GrnMpr-Std-ClrSpe, ! Name
  ,                                       ! Type
  Construction,                           ! Line Item Type
  90.1 Windows Window Fixed 2535 Vnl-GrnMpr-Std-ClrSpe, ! Item Name
  ,                                       ! Object End Use Key
  ,                                       ! Quantity {dimensionless}
  0,                                      ! Material Cost {$}
  CostPerArea;                            ! Material Cost Units

OS:Construction,
  {a402cdc1-32cd-4e45-bbf6-bf1b87a8545b}, ! Handle
  90.1 Windows Window Fixed 2535 Vnl-GrnMpr-Std-ClrSpe, ! Name
  ,                                       ! Surface Rendering Name
  {8dffdd40-9553-4260-9990-68d2bcc703b8}; ! Layer 1

