
OS:Version,
  {fa161272-9d6c-4d1b-9d21-79723fabbd4b}, ! Handle
  0.9.3;                                  ! Version Identifier

OS:Construction,
  {cb7ff34c-3001-4235-942f-e41fa93f5178}, ! Handle
  90.1 Windows Window Fixed 2535 Vnl-GrnMpr-Std-ClrSpe, ! Name
  ,                                       ! Surface Rendering Name
  {56de0f75-8861-4af8-b7ab-1f5f09bb3b3f}; ! Layer 1

OS:WindowMaterial:Glazing,
  {56de0f75-8861-4af8-b7ab-1f5f09bb3b3f}, ! Handle
  Theoretical Glass [522],                ! Name
  SpectralAverage,                        ! Optical Data Type
  ,                                       ! Window Glass Spectral Data Set Name
  0.003,                                  ! Thickness {m}
  0.226352,                               ! Solar Transmittance at Normal Incidence
  0.723648,                               ! Front Side Solar Reflectance at Normal Incidence
  0.723648,                               ! Back Side Solar Reflectance at Normal Incidence
  0.310844,                               ! Visible Transmittance at Normal Incidence
  0.639156,                               ! Front Side Visible Reflectance at Normal Incidence
  0.639156,                               ! Back Side Visible Reflectance at Normal Incidence
  0,                                      ! Infrared Transmittance at Normal Incidence
  0.9,                                    ! Front Side Infrared Hemispherical Emissivity
  0.9,                                    ! Back Side Infrared Hemispherical Emissivity
  0.00956575;                             ! Conductivity {W/m-K}

OS:ComponentCost:LineItem,
  {3498b22e-a2ad-4b61-acdc-f27526ad2ae7}, ! Handle
  90.1 Windows Window Fixed 2535 Vnl-GrnMpr-Std-ClrSpe, ! Name
  ,                                       ! Type
  Construction,                           ! Line Item Type
  90.1 Windows Window Fixed 2535 Vnl-GrnMpr-Std-ClrSpe, ! Item Name
  ,                                       ! Object End Use Key
  ,                                       ! Quantity {dimensionless}
  0,                                      ! Material Cost {$}
  CostPerArea;                            ! Material Cost Units

OS:ComponentData,
  {d7bd4109-44fb-4dd0-bf97-9702a998b75e}, ! Handle
  Component Data 1,                       ! Name
  {1d6a475b-7da3-4738-aaf7-e674140cbaed}, ! UUID
  {ea47a3a8-d881-4d0e-86a0-9d8e2369a5fd}, ! Version UUID
  1363981026,                             ! Creation Timestamp
  1363981026,                             ! Version Timestamp
  {cb7ff34c-3001-4235-942f-e41fa93f5178}, ! Name of Object 1
  {56de0f75-8861-4af8-b7ab-1f5f09bb3b3f}, ! Name of Object 2
  {3498b22e-a2ad-4b61-acdc-f27526ad2ae7}; ! Name of Object 3

