
OS:Version,
  {78ff1a96-95f8-481a-92e0-b6fe03609153}, ! Handle
  0.9.3;                                  ! Version Identifier

OS:Material,
  {52bbb8e2-77a9-44e6-b84e-8a5c1ebe10fc}, ! Handle
  1/2IN Gypsum,                           ! Name
  Smooth,                                 ! Roughness
  0.01271,                                ! Thickness {m}
  0.16,                                   ! Conductivity {W/m-K}
  784.9,                                  ! Density {kg/m3}
  830,                                    ! Specific Heat {J/kg-K}
  0.9,                                    ! Thermal Absorptance
  0.92,                                   ! Solar Absorptance
  0.92;                                   ! Visible Absorptance

OS:Material,
  {54060191-69bb-4690-aa3d-4696728fe2fe}, ! Handle
  8IN Concrete HW,                        ! Name
  MediumRough,                            ! Roughness
  0.2033,                                 ! Thickness {m}
  1.7296,                                 ! Conductivity {W/m-K}
  2243,                                   ! Density {kg/m3}
  837,                                    ! Specific Heat {J/kg-K}
  0.9,                                    ! Thermal Absorptance
  0.65,                                   ! Solar Absorptance
  0.65;                                   ! Visible Absorptance

OS:Material,
  {aab41d62-3014-46ea-bc15-8745528895ab}, ! Handle
  1IN Stucco,                             ! Name
  Smooth,                                 ! Roughness
  0.0253,                                 ! Thickness {m}
  0.6918,                                 ! Conductivity {W/m-K}
  1858,                                   ! Density {kg/m3}
  837,                                    ! Specific Heat {J/kg-K}
  0.9,                                    ! Thermal Absorptance
  0.92,                                   ! Solar Absorptance
  0.92;                                   ! Visible Absorptance

OS:Construction,
  {eefca34b-cfea-479b-95db-620af8aa8142}, ! Handle
  90.1-2001 Nonres B4 Ext Wall Mass,      ! Name
  ,                                       ! Surface Rendering Name
  {aab41d62-3014-46ea-bc15-8745528895ab}, ! Layer 1
  {54060191-69bb-4690-aa3d-4696728fe2fe}, ! Layer 2
  {52bbb8e2-77a9-44e6-b84e-8a5c1ebe10fc}; ! Layer 3

OS:ComponentCost:LineItem,
  {fe8486cb-4c49-4e29-93f3-138e8a3daa3f}, ! Handle
  90.1-2001 Nonres B4 Ext Wall Mass,      ! Name
  ,                                       ! Type
  Construction,                           ! Line Item Type
  90.1-2001 Nonres B4 Ext Wall Mass,      ! Item Name
  ,                                       ! Object End Use Key
  ,                                       ! Quantity {dimensionless}
  41.397,                                 ! Material Cost {$}
  CostPerArea;                            ! Material Cost Units

