
OS:Version,
  {ec7def0b-1ae1-4273-a9b0-4a8d85479071}, ! Handle
  0.9.3;                                  ! Version Identifier

OS:Construction,
  {5825acfd-b3f0-44a0-bdfd-2941045add68}, ! Handle
  AEDG-SmOffice 5B Window Fixed,          ! Name
  ,                                       ! Surface Rendering Name
  {dae23159-00f6-463f-8004-40950c1a49f5}; ! Layer 1

OS:WindowMaterial:Glazing,
  {dae23159-00f6-463f-8004-40950c1a49f5}, ! Handle
  Theoretical Glass [233],                ! Name
  SpectralAverage,                        ! Optical Data Type
  ,                                       ! Window Glass Spectral Data Set Name
  0.003,                                  ! Thickness {m}
  0.454257,                               ! Solar Transmittance at Normal Incidence
  0.495743,                               ! Front Side Solar Reflectance at Normal Incidence
  0.495743,                               ! Back Side Solar Reflectance at Normal Incidence
  0.493419,                               ! Visible Transmittance at Normal Incidence
  0.456581,                               ! Front Side Visible Reflectance at Normal Incidence
  0.456581,                               ! Back Side Visible Reflectance at Normal Incidence
  0,                                      ! Infrared Transmittance at Normal Incidence
  0.9,                                    ! Front Side Infrared Hemispherical Emissivity
  0.9,                                    ! Back Side Infrared Hemispherical Emissivity
  0.0116221;                              ! Conductivity {W/m-K}

OS:ComponentCost:LineItem,
  {aa3b1910-69be-4aed-a6c8-8e73e6a10f3f}, ! Handle
  AEDG-SmOffice 5B Window Fixed,          ! Name
  ,                                       ! Type
  Construction,                           ! Line Item Type
  AEDG-SmOffice 5B Window Fixed,          ! Item Name
  ,                                       ! Object End Use Key
  ,                                       ! Quantity {dimensionless}
  546.13,                                 ! Material Cost {$}
  CostPerArea;                            ! Material Cost Units

