
OS:Version,
  {3b457fb2-fc51-4b10-8e03-9e8b1679f56a}, ! Handle
  0.9.3;                                  ! Version Identifier

OS:Construction,
  {e6fdc0f3-641f-4e3c-9f3a-d64204468e42}, ! Handle
  90.1-1999 Res B15 Roof IEAD,            ! Name
  ,                                       ! Surface Rendering Name
  {52f44f61-e2c7-4c6d-b0be-36b8da59a86a}, ! Layer 1
  {b9e6199b-a1ab-4bbc-93e7-efb45a022c65}, ! Layer 2
  {34bd5a28-5b83-4004-a7e7-628c09c4664c}; ! Layer 3

OS:Material,
  {52f44f61-e2c7-4c6d-b0be-36b8da59a86a}, ! Handle
  Roof Membrane,                          ! Name
  VeryRough,                              ! Roughness
  0.0095,                                 ! Thickness {m}
  0.16,                                   ! Conductivity {W/m-K}
  1121.29,                                ! Density {kg/m3}
  1460,                                   ! Specific Heat {J/kg-K}
  0.9,                                    ! Thermal Absorptance
  0.7,                                    ! Solar Absorptance
  0.7;                                    ! Visible Absorptance

OS:Material,
  {b9e6199b-a1ab-4bbc-93e7-efb45a022c65}, ! Handle
  Roof Insulation,                        ! Name
  MediumRough,                            ! Roughness
  0.124958,                               ! Thickness {m}
  0.049,                                  ! Conductivity {W/m-K}
  265,                                    ! Density {kg/m3}
  836.8,                                  ! Specific Heat {J/kg-K}
  0.9,                                    ! Thermal Absorptance
  0.7,                                    ! Solar Absorptance
  0.7;                                    ! Visible Absorptance

OS:Material,
  {34bd5a28-5b83-4004-a7e7-628c09c4664c}, ! Handle
  Metal Decking,                          ! Name
  MediumSmooth,                           ! Roughness
  0.001524,                               ! Thickness {m}
  45.006,                                 ! Conductivity {W/m-K}
  7680,                                   ! Density {kg/m3}
  418.4,                                  ! Specific Heat {J/kg-K}
  0.9,                                    ! Thermal Absorptance
  0.7,                                    ! Solar Absorptance
  0.3;                                    ! Visible Absorptance

OS:ComponentCost:LineItem,
  {72f9f53c-a205-4fed-b52b-eab7a8735408}, ! Handle
  90.1-1999 Res B15 Roof IEAD,            ! Name
  ,                                       ! Type
  Construction,                           ! Line Item Type
  90.1-1999 Res B15 Roof IEAD,            ! Item Name
  ,                                       ! Object End Use Key
  ,                                       ! Quantity {dimensionless}
  49.208,                                 ! Material Cost {$}
  CostPerArea;                            ! Material Cost Units

