
OS:Version,
  {57d36886-b3c2-4cda-a144-f9f8459522c2}, ! Handle
  0.9.3;                                  ! Version Identifier

OS:Material,
  {61a01050-4db3-4ba6-98d7-339892ed0281}, ! Handle
  Roof Membrane,                          ! Name
  VeryRough,                              ! Roughness
  0.0095,                                 ! Thickness {m}
  0.16,                                   ! Conductivity {W/m-K}
  1121.29,                                ! Density {kg/m3}
  1460,                                   ! Specific Heat {J/kg-K}
  0.9,                                    ! Thermal Absorptance
  0.7,                                    ! Solar Absorptance
  0.7;                                    ! Visible Absorptance

OS:Material,
  {5d6b8774-e5a8-4c1b-be3d-a2bb75f7984e}, ! Handle
  Metal Decking,                          ! Name
  MediumSmooth,                           ! Roughness
  0.001524,                               ! Thickness {m}
  45.006,                                 ! Conductivity {W/m-K}
  7680,                                   ! Density {kg/m3}
  418.4,                                  ! Specific Heat {J/kg-K}
  0.9,                                    ! Thermal Absorptance
  0.7,                                    ! Solar Absorptance
  0.3;                                    ! Visible Absorptance

OS:ComponentCost:LineItem,
  {f5814cee-604a-4478-977b-f39443a2f2b2}, ! Handle
  90.1-2007 Res 5B Roof IEAD,             ! Name
  ,                                       ! Type
  Construction,                           ! Line Item Type
  90.1-2007 Res 5B Roof IEAD,             ! Item Name
  ,                                       ! Object End Use Key
  ,                                       ! Quantity {dimensionless}
  52.87,                                  ! Material Cost {$}
  CostPerArea;                            ! Material Cost Units

OS:Material,
  {9418271b-cf58-492e-88b5-0eb1b532f25f}, ! Handle
  Roof Insulation [14],                   ! Name
  MediumRough,                            ! Roughness
  0.167335,                               ! Thickness {m}
  0.049,                                  ! Conductivity {W/m-K}
  265,                                    ! Density {kg/m3}
  836.8,                                  ! Specific Heat {J/kg-K}
  0.9,                                    ! Thermal Absorptance
  0.7,                                    ! Solar Absorptance
  0.7;                                    ! Visible Absorptance

OS:Construction,
  {754c5048-4711-400d-a1aa-133e75e9774c}, ! Handle
  90.1-2007 Res 5B Roof IEAD,             ! Name
  ,                                       ! Surface Rendering Name
  {61a01050-4db3-4ba6-98d7-339892ed0281}, ! Layer 1
  {9418271b-cf58-492e-88b5-0eb1b532f25f}, ! Layer 2
  {5d6b8774-e5a8-4c1b-be3d-a2bb75f7984e}; ! Layer 3

