
OS:Version,
  {c9f91c0d-64c3-45e8-ba29-689a99ee40c5}, ! Handle
  0.9.3;                                  ! Version Identifier

OS:Construction,
  {175fa318-c239-4285-ab86-7d56c98408a4}, ! Handle
  90.1-2007 Nonres 4B Ext Wall Wood-Framed and Other, ! Name
  ,                                       ! Surface Rendering Name
  {2207dc13-961f-48fb-827d-fe2f393adc2d}, ! Layer 1
  {54535303-e49f-422a-b32a-084fb0e19aa6}, ! Layer 2
  {1eeaa5c6-04c2-4f38-94b6-6e22e0f7e6e3}; ! Layer 3

OS:Material,
  {2207dc13-961f-48fb-827d-fe2f393adc2d}, ! Handle
  Wood Siding,                            ! Name
  MediumSmooth,                           ! Roughness
  0.01,                                   ! Thickness {m}
  0.11,                                   ! Conductivity {W/m-K}
  544.62,                                 ! Density {kg/m3}
  1210,                                   ! Specific Heat {J/kg-K}
  0.9,                                    ! Thermal Absorptance
  0.78,                                   ! Solar Absorptance
  0.78;                                   ! Visible Absorptance

OS:Material,
  {54535303-e49f-422a-b32a-084fb0e19aa6}, ! Handle
  Wall Insulation [2],                    ! Name
  MediumRough,                            ! Roughness
  0.0746874,                              ! Thickness {m}
  0.045,                                  ! Conductivity {W/m-K}
  265,                                    ! Density {kg/m3}
  836.8,                                  ! Specific Heat {J/kg-K}
  0.9,                                    ! Thermal Absorptance
  0.7,                                    ! Solar Absorptance
  0.7;                                    ! Visible Absorptance

OS:Material,
  {1eeaa5c6-04c2-4f38-94b6-6e22e0f7e6e3}, ! Handle
  1/2IN Gypsum,                           ! Name
  Smooth,                                 ! Roughness
  0.01271,                                ! Thickness {m}
  0.16,                                   ! Conductivity {W/m-K}
  784.9,                                  ! Density {kg/m3}
  830,                                    ! Specific Heat {J/kg-K}
  0.9,                                    ! Thermal Absorptance
  0.92,                                   ! Solar Absorptance
  0.92;                                   ! Visible Absorptance

OS:ComponentCost:LineItem,
  {8c6bcd63-03bb-4bda-9202-e3f4e1fa1eff}, ! Handle
  90.1-2007 Nonres 4B Ext Wall Wood-Framed and Other, ! Name
  ,                                       ! Type
  Construction,                           ! Line Item Type
  90.1-2007 Nonres 4B Ext Wall Wood-Framed and Other, ! Item Name
  ,                                       ! Object End Use Key
  ,                                       ! Quantity {dimensionless}
  73.056,                                 ! Material Cost {$}
  CostPerArea;                            ! Material Cost Units

OS:ComponentData,
  {1b65d508-8642-41f3-8b50-27b3c7cdd43c}, ! Handle
  Component Data 1,                       ! Name
  {98b06ceb-b3da-4c6f-88d4-566d48162263}, ! UUID
  {21ec89e2-54ae-4151-937a-91c9d6b19cfa}, ! Version UUID
  1363981801,                             ! Creation Timestamp
  1363981801,                             ! Version Timestamp
  {175fa318-c239-4285-ab86-7d56c98408a4}, ! Name of Object 1
  {2207dc13-961f-48fb-827d-fe2f393adc2d}, ! Name of Object 2
  {54535303-e49f-422a-b32a-084fb0e19aa6}, ! Name of Object 3
  {1eeaa5c6-04c2-4f38-94b6-6e22e0f7e6e3}, ! Name of Object 4
  {8c6bcd63-03bb-4bda-9202-e3f4e1fa1eff}; ! Name of Object 5

