
OS:Version,
  {3002ce3a-2541-4963-ae46-c1f13a599c18}, ! Handle
  0.9.3;                                  ! Version Identifier

OS:Material,
  {4d2748a3-b41d-40bc-8c95-1ed4b566f88f}, ! Handle
  1/2IN Gypsum,                           ! Name
  Smooth,                                 ! Roughness
  0.01271,                                ! Thickness {m}
  0.16,                                   ! Conductivity {W/m-K}
  784.9,                                  ! Density {kg/m3}
  830,                                    ! Specific Heat {J/kg-K}
  0.9,                                    ! Thermal Absorptance
  0.92,                                   ! Solar Absorptance
  0.92;                                   ! Visible Absorptance

OS:Construction,
  {dd09d6d6-9fb3-4968-810f-5e697e85d8c2}, ! Handle
  90.1-2007 Nonres 4B Ext Wall Wood-Framed and Other, ! Name
  ,                                       ! Surface Rendering Name
  {bb671aa7-287a-456c-9af4-afbcb45a76e4}, ! Layer 1
  {5f2fc5a1-7108-4521-8dda-db501ebeaa22}, ! Layer 2
  {4d2748a3-b41d-40bc-8c95-1ed4b566f88f}; ! Layer 3

OS:Material,
  {bb671aa7-287a-456c-9af4-afbcb45a76e4}, ! Handle
  Wood Siding,                            ! Name
  MediumSmooth,                           ! Roughness
  0.01,                                   ! Thickness {m}
  0.11,                                   ! Conductivity {W/m-K}
  544.62,                                 ! Density {kg/m3}
  1210,                                   ! Specific Heat {J/kg-K}
  0.9,                                    ! Thermal Absorptance
  0.78,                                   ! Solar Absorptance
  0.78;                                   ! Visible Absorptance

OS:Material,
  {5f2fc5a1-7108-4521-8dda-db501ebeaa22}, ! Handle
  Wall Insulation [2],                    ! Name
  MediumRough,                            ! Roughness
  0.0746874,                              ! Thickness {m}
  0.045,                                  ! Conductivity {W/m-K}
  265,                                    ! Density {kg/m3}
  836.8,                                  ! Specific Heat {J/kg-K}
  0.9,                                    ! Thermal Absorptance
  0.7,                                    ! Solar Absorptance
  0.7;                                    ! Visible Absorptance

OS:ComponentCost:LineItem,
  {82fb9ce4-79ff-442d-b905-e49a21c40b4b}, ! Handle
  90.1-2007 Nonres 4B Ext Wall Wood-Framed and Other, ! Name
  ,                                       ! Type
  Construction,                           ! Line Item Type
  90.1-2007 Nonres 4B Ext Wall Wood-Framed and Other, ! Item Name
  ,                                       ! Object End Use Key
  ,                                       ! Quantity {dimensionless}
  73.056,                                 ! Material Cost {$}
  CostPerArea;                            ! Material Cost Units

