
OS:Version,
  {f37a02fd-40ad-4e78-bfce-a92cde4cd07e}, ! Handle
  0.9.3;                                  ! Version Identifier

OS:Material,
  {ba2ce14b-e1ea-4ede-9c4d-cecbafd7c607}, ! Handle
  Roof Insulation [7],                    ! Name
  MediumRough,                            ! Roughness
  0.167563,                               ! Thickness {m}
  0.049,                                  ! Conductivity {W/m-K}
  265,                                    ! Density {kg/m3}
  836.8,                                  ! Specific Heat {J/kg-K}
  0.9,                                    ! Thermal Absorptance
  0.7,                                    ! Solar Absorptance
  0.7;                                    ! Visible Absorptance

OS:Material,
  {f6684fcf-93e2-444b-bdc2-f69eb7688e94}, ! Handle
  Metal Decking,                          ! Name
  MediumSmooth,                           ! Roughness
  0.001524,                               ! Thickness {m}
  45.006,                                 ! Conductivity {W/m-K}
  7680,                                   ! Density {kg/m3}
  418.4,                                  ! Specific Heat {J/kg-K}
  0.9,                                    ! Thermal Absorptance
  0.7,                                    ! Solar Absorptance
  0.3;                                    ! Visible Absorptance

OS:ComponentCost:LineItem,
  {161becf7-abe8-4191-b488-54b3c1e46bd8}, ! Handle
  90.1-2001 Res B24 Roof IEAD,            ! Name
  ,                                       ! Type
  Construction,                           ! Line Item Type
  90.1-2001 Res B24 Roof IEAD,            ! Item Name
  ,                                       ! Object End Use Key
  ,                                       ! Quantity {dimensionless}
  52.896,                                 ! Material Cost {$}
  CostPerArea;                            ! Material Cost Units

OS:Construction,
  {1606ca4f-51c5-4391-b94f-3d80f48a9a8a}, ! Handle
  90.1-2001 Res B24 Roof IEAD,            ! Name
  ,                                       ! Surface Rendering Name
  {deb4361e-702f-47ed-81f5-7fc101b55607}, ! Layer 1
  {ba2ce14b-e1ea-4ede-9c4d-cecbafd7c607}, ! Layer 2
  {f6684fcf-93e2-444b-bdc2-f69eb7688e94}; ! Layer 3

OS:Material,
  {deb4361e-702f-47ed-81f5-7fc101b55607}, ! Handle
  Roof Membrane,                          ! Name
  VeryRough,                              ! Roughness
  0.0095,                                 ! Thickness {m}
  0.16,                                   ! Conductivity {W/m-K}
  1121.29,                                ! Density {kg/m3}
  1460,                                   ! Specific Heat {J/kg-K}
  0.9,                                    ! Thermal Absorptance
  0.7,                                    ! Solar Absorptance
  0.7;                                    ! Visible Absorptance

