
OS:Version,
  {14f92994-483f-41a3-9949-73abfb378e0a}, ! Handle
  0.9.3;                                  ! Version Identifier

OS:Construction,
  {6a2ae6e9-e9c7-40a5-8bec-786b10152c05}, ! Handle
  90.1-2001 Res B24 Roof IEAD,            ! Name
  ,                                       ! Surface Rendering Name
  {19678f66-5e6e-4d3d-a30b-8803a771e41b}, ! Layer 1
  {67ae1db8-4c23-4a60-912c-ac881f985caa}, ! Layer 2
  {8c6fc6b1-ae8d-4541-b95c-b7762ba98137}; ! Layer 3

OS:Material,
  {19678f66-5e6e-4d3d-a30b-8803a771e41b}, ! Handle
  Roof Membrane,                          ! Name
  VeryRough,                              ! Roughness
  0.0095,                                 ! Thickness {m}
  0.16,                                   ! Conductivity {W/m-K}
  1121.29,                                ! Density {kg/m3}
  1460,                                   ! Specific Heat {J/kg-K}
  0.9,                                    ! Thermal Absorptance
  0.7,                                    ! Solar Absorptance
  0.7;                                    ! Visible Absorptance

OS:Material,
  {67ae1db8-4c23-4a60-912c-ac881f985caa}, ! Handle
  Roof Insulation [7],                    ! Name
  MediumRough,                            ! Roughness
  0.167563,                               ! Thickness {m}
  0.049,                                  ! Conductivity {W/m-K}
  265,                                    ! Density {kg/m3}
  836.8,                                  ! Specific Heat {J/kg-K}
  0.9,                                    ! Thermal Absorptance
  0.7,                                    ! Solar Absorptance
  0.7;                                    ! Visible Absorptance

OS:Material,
  {8c6fc6b1-ae8d-4541-b95c-b7762ba98137}, ! Handle
  Metal Decking,                          ! Name
  MediumSmooth,                           ! Roughness
  0.001524,                               ! Thickness {m}
  45.006,                                 ! Conductivity {W/m-K}
  7680,                                   ! Density {kg/m3}
  418.4,                                  ! Specific Heat {J/kg-K}
  0.9,                                    ! Thermal Absorptance
  0.7,                                    ! Solar Absorptance
  0.3;                                    ! Visible Absorptance

OS:ComponentCost:LineItem,
  {cc44e130-fd49-410f-ae71-951672e3d726}, ! Handle
  90.1-2001 Res B24 Roof IEAD,            ! Name
  ,                                       ! Type
  Construction,                           ! Line Item Type
  90.1-2001 Res B24 Roof IEAD,            ! Item Name
  ,                                       ! Object End Use Key
  ,                                       ! Quantity {dimensionless}
  52.896,                                 ! Material Cost {$}
  CostPerArea;                            ! Material Cost Units

OS:ComponentData,
  {2b15af20-ee7b-424b-9095-ca5459e2e036}, ! Handle
  Component Data 1,                       ! Name
  {ff462839-1391-4024-88f2-8c36f0dc8b1a}, ! UUID
  {366277cf-fbb7-450b-834b-4470bc51f526}, ! Version UUID
  1363981603,                             ! Creation Timestamp
  1363981603,                             ! Version Timestamp
  {6a2ae6e9-e9c7-40a5-8bec-786b10152c05}, ! Name of Object 1
  {19678f66-5e6e-4d3d-a30b-8803a771e41b}, ! Name of Object 2
  {67ae1db8-4c23-4a60-912c-ac881f985caa}, ! Name of Object 3
  {8c6fc6b1-ae8d-4541-b95c-b7762ba98137}, ! Name of Object 4
  {cc44e130-fd49-410f-ae71-951672e3d726}; ! Name of Object 5

