
OS:Version,
  {707efb2c-b230-4027-abc2-dde76a1e39d8}, !- Handle
  1.0.6;                                  !- Version Identifier

OS:WindowMaterial:Glazing,
  {61e038cb-4c38-410b-ba21-72737c1efbdb}, !- Handle
  189.1-2011 NONRES 2A METAL FRAMING CURTAINWALL-STOREFRONT THEORETICAL GLAZING, !- Name
  SpectralAverage,                        !- Optical Data Type
  ,                                       !- Window Glass Spectral Data Set Name
  0.002,                                  !- Thickness {m}
  0.13454,                                !- Solar Transmittance at Normal Incidence
  0.5334,                                 !- Front Side Solar Reflectance at Normal Incidence
  0.5334,                                 !- Back Side Solar Reflectance at Normal Incidence
  0.13454,                                !- Visible Transmittance at Normal Incidence
  0.5334,                                 !- Front Side Visible Reflectance at Normal Incidence
  0.5334,                                 !- Back Side Visible Reflectance at Normal Incidence
  0,                                      !- Infrared Transmittance at Normal Incidence
  0.84,                                   !- Front Side Infrared Hemispherical Emissivity
  0.84,                                   !- Back Side Infrared Hemispherical Emissivity
  0.02398,                                !- Conductivity {W/m-K}
  1,                                      !- Dirt Correction Factor for Solar and Visible Transmittance
  No;                                     !- Solar Diffusing

OS:Construction,
  {5047ec71-9f03-4729-a1b5-f915c4a1e550}, !- Handle
  189.1-2011 NONRES 2A METAL FRAMING CURTAINWALL-STOREFRONT, !- Name
  ,                                       !- Surface Rendering Name
  {61e038cb-4c38-410b-ba21-72737c1efbdb}; !- Layer 1

