
OS:Version,
  {584c6cc4-5e8e-4e5a-a987-40b6fb3d08a1}, ! Handle
  0.9.3;                                  ! Version Identifier

OS:Material,
  {527041f9-38c7-4468-90f4-652f4c15f54e}, ! Handle
  Metal Siding,                           ! Name
  Smooth,                                 ! Roughness
  0.0015,                                 ! Thickness {m}
  44.96,                                  ! Conductivity {W/m-K}
  7688.86,                                ! Density {kg/m3}
  410,                                    ! Specific Heat {J/kg-K}
  0.9,                                    ! Thermal Absorptance
  0.2,                                    ! Solar Absorptance
  0.2;                                    ! Visible Absorptance

OS:Material,
  {e430a884-cfac-40a2-adc5-c42bb0d7525a}, ! Handle
  Wall Insulation [17],                   ! Name
  MediumRough,                            ! Roughness
  0.133722,                               ! Thickness {m}
  0.045,                                  ! Conductivity {W/m-K}
  265,                                    ! Density {kg/m3}
  836.8,                                  ! Specific Heat {J/kg-K}
  0.9,                                    ! Thermal Absorptance
  0.7,                                    ! Solar Absorptance
  0.7;                                    ! Visible Absorptance

OS:Construction,
  {324dd88b-d395-49dd-82e7-9dc9729fb9f9}, ! Handle
  90.1-1999 Res B26 Ext Wall Metal Building, ! Name
  ,                                       ! Surface Rendering Name
  {527041f9-38c7-4468-90f4-652f4c15f54e}, ! Layer 1
  {e430a884-cfac-40a2-adc5-c42bb0d7525a}, ! Layer 2
  {eb1dfe82-2fe2-423c-8e0b-68f80d779f9c}; ! Layer 3

OS:Material,
  {eb1dfe82-2fe2-423c-8e0b-68f80d779f9c}, ! Handle
  1/2IN Gypsum,                           ! Name
  Smooth,                                 ! Roughness
  0.01271,                                ! Thickness {m}
  0.16,                                   ! Conductivity {W/m-K}
  784.9,                                  ! Density {kg/m3}
  830,                                    ! Specific Heat {J/kg-K}
  0.9,                                    ! Thermal Absorptance
  0.92,                                   ! Solar Absorptance
  0.92;                                   ! Visible Absorptance

OS:ComponentCost:LineItem,
  {4d942d71-788e-4645-8682-2d7a133464d6}, ! Handle
  90.1-1999 Res B26 Ext Wall Metal Building, ! Name
  ,                                       ! Type
  Construction,                           ! Line Item Type
  90.1-1999 Res B26 Ext Wall Metal Building, ! Item Name
  ,                                       ! Object End Use Key
  ,                                       ! Quantity {dimensionless}
  108.556,                                ! Material Cost {$}
  CostPerArea;                            ! Material Cost Units

