
OS:Version,
  {6ed8b893-79c9-4104-8da7-56d7f534a51c}, ! Handle
  0.9.3;                                  ! Version Identifier

OS:ComponentCost:LineItem,
  {ea28bdbd-dbe7-471b-a9d4-7801798bd317}, ! Handle
  90.1 Windows Window Fixed 2346 Brk-HptMpr-Std-ClrSue, ! Name
  ,                                       ! Type
  Construction,                           ! Line Item Type
  90.1 Windows Window Fixed 2346 Brk-HptMpr-Std-ClrSue, ! Item Name
  ,                                       ! Object End Use Key
  ,                                       ! Quantity {dimensionless}
  0,                                      ! Material Cost {$}
  CostPerArea;                            ! Material Cost Units

OS:Construction,
  {c58692bc-36de-4490-a9a7-62125a20501d}, ! Handle
  90.1 Windows Window Fixed 2346 Brk-HptMpr-Std-ClrSue, ! Name
  ,                                       ! Surface Rendering Name
  {7d31a7d5-5898-4fe5-a400-21f312f3826e}; ! Layer 1

OS:WindowMaterial:Glazing,
  {7d31a7d5-5898-4fe5-a400-21f312f3826e}, ! Handle
  Theoretical Glass [542],                ! Name
  SpectralAverage,                        ! Optical Data Type
  ,                                       ! Window Glass Spectral Data Set Name
  0.003,                                  ! Thickness {m}
  0.185641,                               ! Solar Transmittance at Normal Incidence
  0.764359,                               ! Front Side Solar Reflectance at Normal Incidence
  0.764359,                               ! Back Side Solar Reflectance at Normal Incidence
  0.301356,                               ! Visible Transmittance at Normal Incidence
  0.648644,                               ! Front Side Visible Reflectance at Normal Incidence
  0.648644,                               ! Back Side Visible Reflectance at Normal Incidence
  0,                                      ! Infrared Transmittance at Normal Incidence
  0.9,                                    ! Front Side Infrared Hemispherical Emissivity
  0.9,                                    ! Back Side Infrared Hemispherical Emissivity
  0.0134754;                              ! Conductivity {W/m-K}

