
OS:Version,
  {a92f58b9-af60-455e-9f49-e0c1883634e1}, !- Handle
  1.0.6;                                  !- Version Identifier

OS:WindowMaterial:Glazing,
  {5516f53e-a098-4419-a4d2-1715f03f2aab}, !- Handle
  189.1-2011 NONRES 3A NONMETAL FRAMING THEORETICAL GLAZING, !- Name
  SpectralAverage,                        !- Optical Data Type
  ,                                       !- Window Glass Spectral Data Set Name
  0.02657,                                !- Thickness {m}
  0.16139,                                !- Solar Transmittance at Normal Incidence
  0.61717,                                !- Front Side Solar Reflectance at Normal Incidence
  0.61717,                                !- Back Side Solar Reflectance at Normal Incidence
  0.16139,                                !- Visible Transmittance at Normal Incidence
  0.61717,                                !- Front Side Visible Reflectance at Normal Incidence
  0.61717,                                !- Back Side Visible Reflectance at Normal Incidence
  0,                                      !- Infrared Transmittance at Normal Incidence
  0.84,                                   !- Front Side Infrared Hemispherical Emissivity
  0.84,                                   !- Back Side Infrared Hemispherical Emissivity
  0.1212,                                 !- Conductivity {W/m-K}
  1,                                      !- Dirt Correction Factor for Solar and Visible Transmittance
  No;                                     !- Solar Diffusing

OS:Construction,
  {e7e0d75d-5fe9-42ef-82ea-26467c1553e8}, !- Handle
  189.1-2011 NONRES 3A NONMETAL FRAMING,  !- Name
  ,                                       !- Surface Rendering Name
  {5516f53e-a098-4419-a4d2-1715f03f2aab}; !- Layer 1

