
! 
OS:Version,
  {9c37d538-db0d-4a47-9850-5bede7e76bd5}, !- Handle
  1.13.0;                                 !- Version Identifier


! {"nombreProductoCorto": "CLIMALIT PLUS con COOL LITE SKN 065 F2 6 (16 argon90%) 44.2 DIAMANT", "codigoEAN": "", "handle": "ac769c66-320d-47c6-a3ec-f8023517ebb9", "g": 0.34, "tV": 0.61, "u": 1.0, "nombreProducto": "CLIMALIT PLUS con COOL LITE SKN 065 F2 6 (16 argon90%) 44.2 DIAMANT\nU:1.0 W/m2K - g:0.34 - Tv: 0.61"}
OS:WindowMaterial:SimpleGlazingSystem,
  {ac769c66-320d-47c6-a3ec-f8023517ebb9}, !- Handle
  CLIMALIT PLUS con COOL LITE SKN 065 F2 6 (16 argon90%) 44.2 DIAMANT, !- Name
  1.0,                                    !- U-Factor {W/m2-K}
  0.34,                                    !- Solar Heat Gain Coefficient
  0.61;                                    !- Visible Transmittance     
  
  
OS:Construction,
  {111ed0c2-2c2b-4cc6-9cac-52724b15633a}, !- Handle
  CLIMALIT PLUS con COOL LITE SKN 065 F2 6 (16 argon90%) 44.2 DIAMANT,                         !- Name
  ,                                       !- Surface Rendering Name
  {ac769c66-320d-47c6-a3ec-f8023517ebb9}; !- Layer 1  

