
OS:Version,
  {7d8c9e8b-c7f7-4192-8932-90f5d39524ce}, ! Handle
  0.9.3;                                  ! Version Identifier

OS:Construction,
  {4cd099d7-32a9-4368-af15-8483c420c47f}, ! Handle
  90.1 Windows Window Fixed 2343 Brk-Hpt-Std-ClrSue, ! Name
  ,                                       ! Surface Rendering Name
  {8b28cae5-4a3e-40fb-a5af-42d1b4c6705f}; ! Layer 1

OS:WindowMaterial:Glazing,
  {8b28cae5-4a3e-40fb-a5af-42d1b4c6705f}, ! Handle
  Theoretical Glass [430],                ! Name
  SpectralAverage,                        ! Optical Data Type
  ,                                       ! Window Glass Spectral Data Set Name
  0.003,                                  ! Thickness {m}
  0.31468,                                ! Solar Transmittance at Normal Incidence
  0.63532,                                ! Front Side Solar Reflectance at Normal Incidence
  0.63532,                                ! Back Side Solar Reflectance at Normal Incidence
  0.469723,                               ! Visible Transmittance at Normal Incidence
  0.480277,                               ! Front Side Visible Reflectance at Normal Incidence
  0.480277,                               ! Back Side Visible Reflectance at Normal Incidence
  0,                                      ! Infrared Transmittance at Normal Incidence
  0.9,                                    ! Front Side Infrared Hemispherical Emissivity
  0.9,                                    ! Back Side Infrared Hemispherical Emissivity
  0.013476;                               ! Conductivity {W/m-K}

OS:ComponentCost:LineItem,
  {75e9ff96-d392-42f9-ba64-7050416588f1}, ! Handle
  90.1 Windows Window Fixed 2343 Brk-Hpt-Std-ClrSue, ! Name
  ,                                       ! Type
  Construction,                           ! Line Item Type
  90.1 Windows Window Fixed 2343 Brk-Hpt-Std-ClrSue, ! Item Name
  ,                                       ! Object End Use Key
  ,                                       ! Quantity {dimensionless}
  0,                                      ! Material Cost {$}
  CostPerArea;                            ! Material Cost Units

