
OS:Version,
  {8761227e-5842-405a-9c80-df8645ef13b3}, ! Handle
  0.9.3;                                  ! Version Identifier

OS:Material,
  {3da3c3f2-e40c-4fef-8221-7877d1a0fc0e}, ! Handle
  Metal Decking,                          ! Name
  MediumSmooth,                           ! Roughness
  0.001524,                               ! Thickness {m}
  45.006,                                 ! Conductivity {W/m-K}
  7680,                                   ! Density {kg/m3}
  418.4,                                  ! Specific Heat {J/kg-K}
  0.9,                                    ! Thermal Absorptance
  0.7,                                    ! Solar Absorptance
  0.3;                                    ! Visible Absorptance

OS:Material,
  {47b36137-ad1a-4a7a-a2f6-f7bf59a7bc32}, ! Handle
  Roof Membrane [2],                      ! Name
  VeryRough,                              ! Roughness
  0.0095,                                 ! Thickness {m}
  0.16,                                   ! Conductivity {W/m-K}
  1121.29,                                ! Density {kg/m3}
  1460,                                   ! Specific Heat {J/kg-K}
  0.9,                                    ! Thermal Absorptance
  0.7,                                    ! Solar Absorptance
  0.85;                                   ! Visible Absorptance

OS:Construction,
  {79d43170-4136-4ca0-8a8d-7232f5e71dfb}, ! Handle
  Title 24-2008 Nonres 16 Roof IEAD,      ! Name
  ,                                       ! Surface Rendering Name
  {47b36137-ad1a-4a7a-a2f6-f7bf59a7bc32}, ! Layer 1
  {1452a6c8-9dd7-4e25-be8b-a54edaf913c3}, ! Layer 2
  {3da3c3f2-e40c-4fef-8221-7877d1a0fc0e}; ! Layer 3

OS:Material,
  {1452a6c8-9dd7-4e25-be8b-a54edaf913c3}, ! Handle
  Roof Insulation [31],                   ! Name
  MediumRough,                            ! Roughness
  0.209546,                               ! Thickness {m}
  0.049,                                  ! Conductivity {W/m-K}
  265,                                    ! Density {kg/m3}
  836.8,                                  ! Specific Heat {J/kg-K}
  0.9,                                    ! Thermal Absorptance
  0.7,                                    ! Solar Absorptance
  0.7;                                    ! Visible Absorptance

OS:ComponentCost:LineItem,
  {3f08574f-4447-4259-a3cd-c10a145281f0}, ! Handle
  Title 24-2008 Nonres 16 Roof IEAD,      ! Name
  ,                                       ! Type
  Construction,                           ! Line Item Type
  Title 24-2008 Nonres 16 Roof IEAD,      ! Item Name
  ,                                       ! Object End Use Key
  ,                                       ! Quantity {dimensionless}
  56.579,                                 ! Material Cost {$}
  CostPerArea;                            ! Material Cost Units

