
OS:Version,
  {639d0f7a-3290-4fef-9619-6fcce0d3910c}, ! Handle
  0.9.3;                                  ! Version Identifier

OS:Material,
  {e303b7ed-62d8-4370-8c1d-7d7b6f434593}, ! Handle
  1/2IN Gypsum,                           ! Name
  Smooth,                                 ! Roughness
  0.01271,                                ! Thickness {m}
  0.16,                                   ! Conductivity {W/m-K}
  784.9,                                  ! Density {kg/m3}
  830,                                    ! Specific Heat {J/kg-K}
  0.9,                                    ! Thermal Absorptance
  0.92,                                   ! Solar Absorptance
  0.92;                                   ! Visible Absorptance

OS:ComponentCost:LineItem,
  {c5f61d05-9145-400f-9af5-a2c912f7dadd}, ! Handle
  Title 24-2008 Nonres 3 Ext Wall Steel-Framed, ! Name
  ,                                       ! Type
  Construction,                           ! Line Item Type
  Title 24-2008 Nonres 3 Ext Wall Steel-Framed, ! Item Name
  ,                                       ! Object End Use Key
  ,                                       ! Quantity {dimensionless}
  155.805,                                ! Material Cost {$}
  CostPerArea;                            ! Material Cost Units

OS:Material:NoMass,
  {cd52c030-fb2d-4bb1-b139-f2945272917c}, ! Handle
  MAT-SHEATH,                             ! Name
  Rough,                                  ! Roughness
  0.36256,                                ! Thermal Resistance {m2-K/W}
  0.9,                                    ! Thermal Absorptance
  0.7,                                    ! Solar Absorptance
  0.7;                                    ! Visible Absorptance

OS:Construction,
  {21643dd1-46bd-4cea-b7d1-9e982e0de74e}, ! Handle
  Title 24-2008 Nonres 3 Ext Wall Steel-Framed, ! Name
  ,                                       ! Surface Rendering Name
  {cd52c030-fb2d-4bb1-b139-f2945272917c}, ! Layer 1
  {3663da93-b5ea-48f8-8eb0-fd65495bb479}, ! Layer 2
  {e303b7ed-62d8-4370-8c1d-7d7b6f434593}; ! Layer 3

OS:Material,
  {3663da93-b5ea-48f8-8eb0-fd65495bb479}, ! Handle
  Wall Insulation [159],                  ! Name
  MediumRough,                            ! Roughness
  0.0812,                                 ! Thickness {m}
  0.045,                                  ! Conductivity {W/m-K}
  265,                                    ! Density {kg/m3}
  836.8,                                  ! Specific Heat {J/kg-K}
  0.9,                                    ! Thermal Absorptance
  0.7,                                    ! Solar Absorptance
  0.7;                                    ! Visible Absorptance

