
OS:Version,
  {ac37f802-91bf-4bd4-8332-2d1bbf08a108}, ! Handle
  0.9.3;                                  ! Version Identifier

OS:Construction,
  {9fe4519d-f450-4376-86c3-72cac4d74319}, ! Handle
  90.1-1999 Nonres B20 Ext Slab Unheated - 8in Slab without Carpet, ! Name
  ,                                       ! Surface Rendering Name
  {09a79b67-ecbd-46fb-9822-352abfc6691f}; ! Layer 1

OS:Material,
  {09a79b67-ecbd-46fb-9822-352abfc6691f}, ! Handle
  MAT-CC05 8 HW CONCRETE,                 ! Name
  Rough,                                  ! Roughness
  0.20321,                                ! Thickness {m}
  1.311,                                  ! Conductivity {W/m-K}
  2240,                                   ! Density {kg/m3}
  836.8,                                  ! Specific Heat {J/kg-K}
  0.9,                                    ! Thermal Absorptance
  0.7,                                    ! Solar Absorptance
  0.7;                                    ! Visible Absorptance

OS:ComponentCost:LineItem,
  {1fb40419-c2d2-45ce-bb51-78837a47e57a}, ! Handle
  90.1-1999 Nonres B20 Ext Slab Unheated - 8in Slab without Carpet, ! Name
  ,                                       ! Type
  Construction,                           ! Line Item Type
  90.1-1999 Nonres B20 Ext Slab Unheated - 8in Slab without Carpet, ! Item Name
  ,                                       ! Object End Use Key
  ,                                       ! Quantity {dimensionless}
  45.52,                                  ! Material Cost {$}
  CostPerArea;                            ! Material Cost Units

