
OS:Version,
  {85432bcd-6dc3-40c8-a869-45d5ac6dbe74}, ! Handle
  0.9.3;                                  ! Version Identifier

OS:Material,
  {59db2aae-f228-450b-9fe6-06372078a7c7}, ! Handle
  Wall Insulation [1],                    ! Name
  MediumRough,                            ! Roughness
  0.0373223,                              ! Thickness {m}
  0.045,                                  ! Conductivity {W/m-K}
  265,                                    ! Density {kg/m3}
  836.8,                                  ! Specific Heat {J/kg-K}
  0.9,                                    ! Thermal Absorptance
  0.7,                                    ! Solar Absorptance
  0.7;                                    ! Visible Absorptance

OS:Material,
  {cda54bf7-6c73-426d-98b2-9c7b5ec7a658}, ! Handle
  1/2IN Gypsum,                           ! Name
  Smooth,                                 ! Roughness
  0.01271,                                ! Thickness {m}
  0.16,                                   ! Conductivity {W/m-K}
  784.9,                                  ! Density {kg/m3}
  830,                                    ! Specific Heat {J/kg-K}
  0.9,                                    ! Thermal Absorptance
  0.92,                                   ! Solar Absorptance
  0.92;                                   ! Visible Absorptance

OS:Construction,
  {89b281d5-8437-4069-9d12-3856bbe164d7}, ! Handle
  90.1-1999 Res B12 Ext Wall Steel-Framed, ! Name
  ,                                       ! Surface Rendering Name
  {b8c16c5e-e1cf-4915-8f72-17633b17fb91}, ! Layer 1
  {59db2aae-f228-450b-9fe6-06372078a7c7}, ! Layer 2
  {cda54bf7-6c73-426d-98b2-9c7b5ec7a658}; ! Layer 3

OS:Material:NoMass,
  {b8c16c5e-e1cf-4915-8f72-17633b17fb91}, ! Handle
  MAT-SHEATH,                             ! Name
  Rough,                                  ! Roughness
  0.36256,                                ! Thermal Resistance {m2-K/W}
  0.9,                                    ! Thermal Absorptance
  0.7,                                    ! Solar Absorptance
  0.7;                                    ! Visible Absorptance

OS:ComponentCost:LineItem,
  {e1243365-04fd-43c2-a007-2abf94c27315}, ! Handle
  90.1-1999 Res B12 Ext Wall Steel-Framed, ! Name
  ,                                       ! Type
  Construction,                           ! Line Item Type
  90.1-1999 Res B12 Ext Wall Steel-Framed, ! Item Name
  ,                                       ! Object End Use Key
  ,                                       ! Quantity {dimensionless}
  87.08,                                  ! Material Cost {$}
  CostPerArea;                            ! Material Cost Units

