
OS:Version,
  {718c57cb-9164-46fa-aa71-baa8c361318f}, ! Handle
  0.9.3;                                  ! Version Identifier

OS:Construction,
  {af6d61e5-df85-4926-bb2c-b10d27d4df93}, ! Handle
  AEDG-SmOffice 4B Roof Metal Building,   ! Name
  ,                                       ! Surface Rendering Name
  {30a44eef-0a20-4b74-8e99-bc1503885a7d}, ! Layer 1
  {f20df14b-a010-48ac-93d6-d80e0bdcd6a7}; ! Layer 2

OS:Material,
  {30a44eef-0a20-4b74-8e99-bc1503885a7d}, ! Handle
  Metal Roofing,                          ! Name
  MediumSmooth,                           ! Roughness
  0.001524,                               ! Thickness {m}
  45.006,                                 ! Conductivity {W/m-K}
  7680,                                   ! Density {kg/m3}
  418.4,                                  ! Specific Heat {J/kg-K}
  0.9,                                    ! Thermal Absorptance
  0.7,                                    ! Solar Absorptance
  0.3;                                    ! Visible Absorptance

OS:Material,
  {f20df14b-a010-48ac-93d6-d80e0bdcd6a7}, ! Handle
  Roof Insulation [8],                    ! Name
  MediumRough,                            ! Roughness
  0.166908,                               ! Thickness {m}
  0.049,                                  ! Conductivity {W/m-K}
  265,                                    ! Density {kg/m3}
  836.8,                                  ! Specific Heat {J/kg-K}
  0.9,                                    ! Thermal Absorptance
  0.7,                                    ! Solar Absorptance
  0.7;                                    ! Visible Absorptance

OS:ComponentCost:LineItem,
  {d814ec1d-1cac-4003-82c3-bdcfbfe81ba5}, ! Handle
  AEDG-SmOffice 4B Roof Metal Building,   ! Name
  ,                                       ! Type
  Construction,                           ! Line Item Type
  AEDG-SmOffice 4B Roof Metal Building,   ! Item Name
  ,                                       ! Object End Use Key
  ,                                       ! Quantity {dimensionless}
  42.184,                                 ! Material Cost {$}
  CostPerArea;                            ! Material Cost Units

OS:ComponentData,
  {8715485c-6a19-4b8c-89b4-8ea82c1507e0}, ! Handle
  Component Data 1,                       ! Name
  {27329f69-4773-4dc8-9690-61cfcbdb13cd}, ! UUID
  {334bdc83-0178-440d-982d-8b7fd73114eb}, ! Version UUID
  1363981949,                             ! Creation Timestamp
  1363981949,                             ! Version Timestamp
  {af6d61e5-df85-4926-bb2c-b10d27d4df93}, ! Name of Object 1
  {30a44eef-0a20-4b74-8e99-bc1503885a7d}, ! Name of Object 2
  {f20df14b-a010-48ac-93d6-d80e0bdcd6a7}, ! Name of Object 3
  {d814ec1d-1cac-4003-82c3-bdcfbfe81ba5}; ! Name of Object 4

