
OS:Version,
  {4e0eebae-bbcc-4b5b-82d6-da25318e251d}, ! Handle
  0.9.3;                                  ! Version Identifier

OS:Material,
  {3f0e0a2f-fbbc-4d3c-8ad0-eb877e64d201}, ! Handle
  Roof Insulation [8],                    ! Name
  MediumRough,                            ! Roughness
  0.166908,                               ! Thickness {m}
  0.049,                                  ! Conductivity {W/m-K}
  265,                                    ! Density {kg/m3}
  836.8,                                  ! Specific Heat {J/kg-K}
  0.9,                                    ! Thermal Absorptance
  0.7,                                    ! Solar Absorptance
  0.7;                                    ! Visible Absorptance

OS:Material,
  {dfe101e7-a4d2-4169-a29b-28cdb18872dd}, ! Handle
  Metal Roofing,                          ! Name
  MediumSmooth,                           ! Roughness
  0.001524,                               ! Thickness {m}
  45.006,                                 ! Conductivity {W/m-K}
  7680,                                   ! Density {kg/m3}
  418.4,                                  ! Specific Heat {J/kg-K}
  0.9,                                    ! Thermal Absorptance
  0.7,                                    ! Solar Absorptance
  0.3;                                    ! Visible Absorptance

OS:Construction,
  {cfda466b-9941-4b79-a6f3-dc9a0d172adb}, ! Handle
  AEDG-SmOffice 4B Roof Metal Building,   ! Name
  ,                                       ! Surface Rendering Name
  {dfe101e7-a4d2-4169-a29b-28cdb18872dd}, ! Layer 1
  {3f0e0a2f-fbbc-4d3c-8ad0-eb877e64d201}; ! Layer 2

OS:ComponentCost:LineItem,
  {c390b9af-d298-4e02-b299-5caa98870f05}, ! Handle
  AEDG-SmOffice 4B Roof Metal Building,   ! Name
  ,                                       ! Type
  Construction,                           ! Line Item Type
  AEDG-SmOffice 4B Roof Metal Building,   ! Item Name
  ,                                       ! Object End Use Key
  ,                                       ! Quantity {dimensionless}
  42.184,                                 ! Material Cost {$}
  CostPerArea;                            ! Material Cost Units

