
OS:Version,
  {e72a3766-ddc8-4d32-a91f-fe2fbc0ab3aa}, ! Handle
  0.9.3;                                  ! Version Identifier

OS:Material,
  {02d6cccc-1b09-4d1d-a204-861b33de49c7}, ! Handle
  1/2IN Gypsum,                           ! Name
  Smooth,                                 ! Roughness
  0.01271,                                ! Thickness {m}
  0.16,                                   ! Conductivity {W/m-K}
  784.9,                                  ! Density {kg/m3}
  830,                                    ! Specific Heat {J/kg-K}
  0.9,                                    ! Thermal Absorptance
  0.92,                                   ! Solar Absorptance
  0.92;                                   ! Visible Absorptance

OS:Material,
  {99dee0ce-54f5-4340-9b17-9c052d6b64c8}, ! Handle
  Wall Insulation [55],                   ! Name
  MediumRough,                            ! Roughness
  0.142007,                               ! Thickness {m}
  0.045,                                  ! Conductivity {W/m-K}
  265,                                    ! Density {kg/m3}
  836.8,                                  ! Specific Heat {J/kg-K}
  0.9,                                    ! Thermal Absorptance
  0.7,                                    ! Solar Absorptance
  0.7;                                    ! Visible Absorptance

OS:Material,
  {2ae83f4d-308b-41ba-87a3-4440ed99209b}, ! Handle
  Metal Siding,                           ! Name
  Smooth,                                 ! Roughness
  0.0015,                                 ! Thickness {m}
  44.96,                                  ! Conductivity {W/m-K}
  7688.86,                                ! Density {kg/m3}
  410,                                    ! Specific Heat {J/kg-K}
  0.9,                                    ! Thermal Absorptance
  0.2,                                    ! Solar Absorptance
  0.2;                                    ! Visible Absorptance

OS:ComponentCost:LineItem,
  {429a27bf-bbaa-4891-9440-1d0df1e55701}, ! Handle
  AEDG-SmOffice 8A Ext Wall Metal Building, ! Name
  ,                                       ! Type
  Construction,                           ! Line Item Type
  AEDG-SmOffice 8A Ext Wall Metal Building, ! Item Name
  ,                                       ! Object End Use Key
  ,                                       ! Quantity {dimensionless}
  111.131,                                ! Material Cost {$}
  CostPerArea;                            ! Material Cost Units

OS:Construction,
  {154f0ca8-e533-4a53-8a84-336608a17890}, ! Handle
  AEDG-SmOffice 8A Ext Wall Metal Building, ! Name
  ,                                       ! Surface Rendering Name
  {2ae83f4d-308b-41ba-87a3-4440ed99209b}, ! Layer 1
  {99dee0ce-54f5-4340-9b17-9c052d6b64c8}, ! Layer 2
  {02d6cccc-1b09-4d1d-a204-861b33de49c7}; ! Layer 3

