
OS:Version,
  {8da28679-8431-4eee-adcc-8d22633b07cc}, ! Handle
  0.9.3;                                  ! Version Identifier

OS:Construction,
  {c8c8437d-1307-49f6-8a25-fccd89a71450}, ! Handle
  AEDG-SmOffice 8A Ext Wall Metal Building, ! Name
  ,                                       ! Surface Rendering Name
  {48b4064b-678b-4e9b-a51e-34de69824de8}, ! Layer 1
  {ab9dd15e-187e-4d81-8b38-7fd230434fc6}, ! Layer 2
  {06589ba1-df3f-4676-8e3d-11d0bb267228}; ! Layer 3

OS:Material,
  {48b4064b-678b-4e9b-a51e-34de69824de8}, ! Handle
  Metal Siding,                           ! Name
  Smooth,                                 ! Roughness
  0.0015,                                 ! Thickness {m}
  44.96,                                  ! Conductivity {W/m-K}
  7688.86,                                ! Density {kg/m3}
  410,                                    ! Specific Heat {J/kg-K}
  0.9,                                    ! Thermal Absorptance
  0.2,                                    ! Solar Absorptance
  0.2;                                    ! Visible Absorptance

OS:Material,
  {ab9dd15e-187e-4d81-8b38-7fd230434fc6}, ! Handle
  Wall Insulation [55],                   ! Name
  MediumRough,                            ! Roughness
  0.142007,                               ! Thickness {m}
  0.045,                                  ! Conductivity {W/m-K}
  265,                                    ! Density {kg/m3}
  836.8,                                  ! Specific Heat {J/kg-K}
  0.9,                                    ! Thermal Absorptance
  0.7,                                    ! Solar Absorptance
  0.7;                                    ! Visible Absorptance

OS:Material,
  {06589ba1-df3f-4676-8e3d-11d0bb267228}, ! Handle
  1/2IN Gypsum,                           ! Name
  Smooth,                                 ! Roughness
  0.01271,                                ! Thickness {m}
  0.16,                                   ! Conductivity {W/m-K}
  784.9,                                  ! Density {kg/m3}
  830,                                    ! Specific Heat {J/kg-K}
  0.9,                                    ! Thermal Absorptance
  0.92,                                   ! Solar Absorptance
  0.92;                                   ! Visible Absorptance

OS:ComponentCost:LineItem,
  {641e4f45-3d82-4322-848d-b298fbbff725}, ! Handle
  AEDG-SmOffice 8A Ext Wall Metal Building, ! Name
  ,                                       ! Type
  Construction,                           ! Line Item Type
  AEDG-SmOffice 8A Ext Wall Metal Building, ! Item Name
  ,                                       ! Object End Use Key
  ,                                       ! Quantity {dimensionless}
  111.131,                                ! Material Cost {$}
  CostPerArea;                            ! Material Cost Units

OS:ComponentData,
  {d42e5bb6-ea69-45e6-ab2b-6ad285a322f5}, ! Handle
  Component Data 1,                       ! Name
  {8166ca16-63b2-4b79-b557-a0f24e04a3b1}, ! UUID
  {3a73b126-e45c-433b-b14d-f686b45e98f6}, ! Version UUID
  1363981968,                             ! Creation Timestamp
  1363981968,                             ! Version Timestamp
  {c8c8437d-1307-49f6-8a25-fccd89a71450}, ! Name of Object 1
  {48b4064b-678b-4e9b-a51e-34de69824de8}, ! Name of Object 2
  {ab9dd15e-187e-4d81-8b38-7fd230434fc6}, ! Name of Object 3
  {06589ba1-df3f-4676-8e3d-11d0bb267228}, ! Name of Object 4
  {641e4f45-3d82-4322-848d-b298fbbff725}; ! Name of Object 5

