
OS:Version,
  {3745260f-6310-46ee-a0a6-121859194b08}, ! Handle
  0.9.3;                                  ! Version Identifier

OS:Construction,
  {deada2a4-7b82-4a98-9ff8-2ce2a52ed503}, ! Handle
  189.1-2009 Nonres 8A Window Nonmetal framing, ! Name
  ,                                       ! Surface Rendering Name
  {5a9b4cc9-1240-40f7-8698-339d245a792f}; ! Layer 1

OS:WindowMaterial:Glazing,
  {5a9b4cc9-1240-40f7-8698-339d245a792f}, ! Handle
  Theoretical Glass [218],                ! Name
  SpectralAverage,                        ! Optical Data Type
  ,                                       ! Window Glass Spectral Data Set Name
  0.003,                                  ! Thickness {m}
  0.428104,                               ! Solar Transmittance at Normal Incidence
  0.521896,                               ! Front Side Solar Reflectance at Normal Incidence
  0.521896,                               ! Back Side Solar Reflectance at Normal Incidence
  0.450308,                               ! Visible Transmittance at Normal Incidence
  0.499692,                               ! Front Side Visible Reflectance at Normal Incidence
  0.499692,                               ! Back Side Visible Reflectance at Normal Incidence
  0,                                      ! Infrared Transmittance at Normal Incidence
  0.9,                                    ! Front Side Infrared Hemispherical Emissivity
  0.9,                                    ! Back Side Infrared Hemispherical Emissivity
  0.00560984;                             ! Conductivity {W/m-K}

OS:ComponentCost:LineItem,
  {395d3392-0c11-404f-83a7-69b7b0fdad09}, ! Handle
  189.1-2009 Nonres 8A Window Nonmetal framing, ! Name
  ,                                       ! Type
  Construction,                           ! Line Item Type
  189.1-2009 Nonres 8A Window Nonmetal framing, ! Item Name
  ,                                       ! Object End Use Key
  ,                                       ! Quantity {dimensionless}
  508.362,                                ! Material Cost {$}
  CostPerArea;                            ! Material Cost Units

OS:ComponentData,
  {3433d423-4bc1-44f8-b612-d8b2f3b0d248}, ! Handle
  Component Data 1,                       ! Name
  {89fdf204-ce46-40bc-8c34-2491f7b6e887}, ! UUID
  {43033295-606a-4314-b9dd-95cf9b9c3880}, ! Version UUID
  1363980956,                             ! Creation Timestamp
  1363980956,                             ! Version Timestamp
  {deada2a4-7b82-4a98-9ff8-2ce2a52ed503}, ! Name of Object 1
  {5a9b4cc9-1240-40f7-8698-339d245a792f}, ! Name of Object 2
  {395d3392-0c11-404f-83a7-69b7b0fdad09}; ! Name of Object 3

