
OS:Version,
  {c156d76d-99ee-4fe5-aec0-4421caf69247}, !- Handle
  1.1.0;                                  !- Version Identifier

OS:Construction,
  {f758c041-8271-4adf-894c-16798721620a}, !- Handle
  Dbl LoE (e2=.2) Clr 6mm/13mm Air,       !- Name
  ,                                       !- Surface Rendering Name
  {5a5bf5e9-0df9-434a-8413-1dc8c08388cc}, !- Layer 1
  {fdf12c38-d463-4c28-9172-f420c1acb859}, !- Layer 2
  {9fd8e9ee-d79e-4893-8420-27f40aca161b}; !- Layer 3

OS:WindowMaterial:Glazing,
  {5a5bf5e9-0df9-434a-8413-1dc8c08388cc}, !- Handle
  PYR B CLEAR 6MM,                        !- Name
  SpectralAverage,                        !- Optical Data Type
  ,                                       !- Window Glass Spectral Data Set Name
  0.006,                                  !- Thickness {m}
  0.68,                                   !- Solar Transmittance at Normal Incidence
  0.09,                                   !- Front Side Solar Reflectance at Normal Incidence
  0.1,                                    !- Back Side Solar Reflectance at Normal Incidence
  0.81,                                   !- Visible Transmittance at Normal Incidence
  0.11,                                   !- Front Side Visible Reflectance at Normal Incidence
  0.12,                                   !- Back Side Visible Reflectance at Normal Incidence
  0,                                      !- Infrared Transmittance at Normal Incidence
  0.84,                                   !- Front Side Infrared Hemispherical Emissivity
  0.2,                                    !- Back Side Infrared Hemispherical Emissivity
  0.9;                                    !- Conductivity {W/m-K}

OS:WindowMaterial:Gas,
  {fdf12c38-d463-4c28-9172-f420c1acb859}, !- Handle
  AIR 13MM,                               !- Name
  Air,                                    !- Gas Type
  0.0127;                                 !- Thickness {m}

OS:WindowMaterial:Glazing,
  {9fd8e9ee-d79e-4893-8420-27f40aca161b}, !- Handle
  CLEAR 6MM,                              !- Name
  SpectralAverage,                        !- Optical Data Type
  ,                                       !- Window Glass Spectral Data Set Name
  0.006,                                  !- Thickness {m}
  0.775,                                  !- Solar Transmittance at Normal Incidence
  0.071,                                  !- Front Side Solar Reflectance at Normal Incidence
  0.071,                                  !- Back Side Solar Reflectance at Normal Incidence
  0.881,                                  !- Visible Transmittance at Normal Incidence
  0.08,                                   !- Front Side Visible Reflectance at Normal Incidence
  0.08,                                   !- Back Side Visible Reflectance at Normal Incidence
  0,                                      !- Infrared Transmittance at Normal Incidence
  0.84,                                   !- Front Side Infrared Hemispherical Emissivity
  0.84,                                   !- Back Side Infrared Hemispherical Emissivity
  0.9;                                    !- Conductivity {W/m-K}

