
OS:Version,
  {8a9daf27-2f9b-4529-b892-6002dad468f1}, ! Handle
  0.9.3;                                  ! Version Identifier

OS:Construction,
  {8b2f95b5-35df-416d-a993-a014cb8d72ee}, ! Handle
  90.1-2001 Nonres B2 Ext Wall Mass,      ! Name
  ,                                       ! Surface Rendering Name
  {2ce9804c-8754-4709-acf8-3facd3a2b0f1}, ! Layer 1
  {b476207e-1e91-4b6b-a62c-7772dbabdc90}, ! Layer 2
  {86477a2e-50ad-4dd1-88d6-3dc6b583bea5}; ! Layer 3

OS:Material,
  {2ce9804c-8754-4709-acf8-3facd3a2b0f1}, ! Handle
  1IN Stucco,                             ! Name
  Smooth,                                 ! Roughness
  0.0253,                                 ! Thickness {m}
  0.6918,                                 ! Conductivity {W/m-K}
  1858,                                   ! Density {kg/m3}
  837,                                    ! Specific Heat {J/kg-K}
  0.9,                                    ! Thermal Absorptance
  0.92,                                   ! Solar Absorptance
  0.92;                                   ! Visible Absorptance

OS:Material,
  {b476207e-1e91-4b6b-a62c-7772dbabdc90}, ! Handle
  8IN Concrete HW,                        ! Name
  MediumRough,                            ! Roughness
  0.2033,                                 ! Thickness {m}
  1.7296,                                 ! Conductivity {W/m-K}
  2243,                                   ! Density {kg/m3}
  837,                                    ! Specific Heat {J/kg-K}
  0.9,                                    ! Thermal Absorptance
  0.65,                                   ! Solar Absorptance
  0.65;                                   ! Visible Absorptance

OS:Material,
  {86477a2e-50ad-4dd1-88d6-3dc6b583bea5}, ! Handle
  1/2IN Gypsum,                           ! Name
  Smooth,                                 ! Roughness
  0.01271,                                ! Thickness {m}
  0.16,                                   ! Conductivity {W/m-K}
  784.9,                                  ! Density {kg/m3}
  830,                                    ! Specific Heat {J/kg-K}
  0.9,                                    ! Thermal Absorptance
  0.92,                                   ! Solar Absorptance
  0.92;                                   ! Visible Absorptance

OS:ComponentCost:LineItem,
  {129731e3-fdd3-418f-8a0b-5098035bc962}, ! Handle
  90.1-2001 Nonres B2 Ext Wall Mass,      ! Name
  ,                                       ! Type
  Construction,                           ! Line Item Type
  90.1-2001 Nonres B2 Ext Wall Mass,      ! Item Name
  ,                                       ! Object End Use Key
  ,                                       ! Quantity {dimensionless}
  41.397,                                 ! Material Cost {$}
  CostPerArea;                            ! Material Cost Units

