
OS:Version,
  {12d6f389-e245-43e3-acab-bc53aa90d03f}, ! Handle
  0.9.3;                                  ! Version Identifier

OS:Construction,
  {0b538b30-015a-4ca0-a92a-d8fc2dcc0fb2}, ! Handle
  90.1-2007 Nonres 2A Ext Wall Metal Building, ! Name
  ,                                       ! Surface Rendering Name
  {5b64d542-f3fa-490f-8b5e-de4b1523b5a1}, ! Layer 1
  {f2444eeb-7e2f-4170-afc2-75970f74a2a5}, ! Layer 2
  {51e2cd5f-8d89-49b1-b037-be35245e228a}; ! Layer 3

OS:Material,
  {5b64d542-f3fa-490f-8b5e-de4b1523b5a1}, ! Handle
  Metal Siding,                           ! Name
  Smooth,                                 ! Roughness
  0.0015,                                 ! Thickness {m}
  44.96,                                  ! Conductivity {W/m-K}
  7688.86,                                ! Density {kg/m3}
  410,                                    ! Specific Heat {J/kg-K}
  0.9,                                    ! Thermal Absorptance
  0.2,                                    ! Solar Absorptance
  0.2;                                    ! Visible Absorptance

OS:Material,
  {f2444eeb-7e2f-4170-afc2-75970f74a2a5}, ! Handle
  Wall Insulation,                        ! Name
  MediumRough,                            ! Roughness
  0.0598725,                              ! Thickness {m}
  0.045,                                  ! Conductivity {W/m-K}
  265,                                    ! Density {kg/m3}
  836.8,                                  ! Specific Heat {J/kg-K}
  0.9,                                    ! Thermal Absorptance
  0.7,                                    ! Solar Absorptance
  0.7;                                    ! Visible Absorptance

OS:Material,
  {51e2cd5f-8d89-49b1-b037-be35245e228a}, ! Handle
  1/2IN Gypsum,                           ! Name
  Smooth,                                 ! Roughness
  0.01271,                                ! Thickness {m}
  0.16,                                   ! Conductivity {W/m-K}
  784.9,                                  ! Density {kg/m3}
  830,                                    ! Specific Heat {J/kg-K}
  0.9,                                    ! Thermal Absorptance
  0.92,                                   ! Solar Absorptance
  0.92;                                   ! Visible Absorptance

OS:ComponentCost:LineItem,
  {b9220629-0eab-48c3-9762-db49e118fe3c}, ! Handle
  90.1-2007 Nonres 2A Ext Wall Metal Building, ! Name
  ,                                       ! Type
  Construction,                           ! Line Item Type
  90.1-2007 Nonres 2A Ext Wall Metal Building, ! Item Name
  ,                                       ! Object End Use Key
  ,                                       ! Quantity {dimensionless}
  98.78,                                  ! Material Cost {$}
  CostPerArea;                            ! Material Cost Units

