
OS:Version,
  {bb47c6fb-074c-41f0-93e1-01126f43c456}, ! Handle
  0.9.3;                                  ! Version Identifier

OS:ComponentCost:LineItem,
  {8676f7bb-2d62-4415-9ec8-0e4c50ab7c94}, ! Handle
  90.1-2001 Nonres B23 Ext Wall Mass,     ! Name
  ,                                       ! Type
  Construction,                           ! Line Item Type
  90.1-2001 Nonres B23 Ext Wall Mass,     ! Item Name
  ,                                       ! Object End Use Key
  ,                                       ! Quantity {dimensionless}
  65.826,                                 ! Material Cost {$}
  CostPerArea;                            ! Material Cost Units

OS:Material,
  {5c4f1834-c302-4096-acb9-cd1a9cd2617f}, ! Handle
  1/2IN Gypsum,                           ! Name
  Smooth,                                 ! Roughness
  0.01271,                                ! Thickness {m}
  0.16,                                   ! Conductivity {W/m-K}
  784.9,                                  ! Density {kg/m3}
  830,                                    ! Specific Heat {J/kg-K}
  0.9,                                    ! Thermal Absorptance
  0.92,                                   ! Solar Absorptance
  0.92;                                   ! Visible Absorptance

OS:Material,
  {24e9e162-6b2c-4562-9d3b-f841271139b4}, ! Handle
  1IN Stucco,                             ! Name
  Smooth,                                 ! Roughness
  0.0253,                                 ! Thickness {m}
  0.6918,                                 ! Conductivity {W/m-K}
  1858,                                   ! Density {kg/m3}
  837,                                    ! Specific Heat {J/kg-K}
  0.9,                                    ! Thermal Absorptance
  0.92,                                   ! Solar Absorptance
  0.92;                                   ! Visible Absorptance

OS:Material,
  {5bdcc1e2-756a-4bf1-8ce5-9a3d9ce5fd0a}, ! Handle
  Wall Insulation [8],                    ! Name
  MediumRough,                            ! Roughness
  0.067929,                               ! Thickness {m}
  0.0432,                                 ! Conductivity {W/m-K}
  91,                                     ! Density {kg/m3}
  837,                                    ! Specific Heat {J/kg-K}
  0.9,                                    ! Thermal Absorptance
  0.5,                                    ! Solar Absorptance
  0.5;                                    ! Visible Absorptance

OS:Material,
  {a0da6e08-0390-4792-9876-9f05574f3b99}, ! Handle
  8IN Concrete HW,                        ! Name
  MediumRough,                            ! Roughness
  0.2033,                                 ! Thickness {m}
  1.7296,                                 ! Conductivity {W/m-K}
  2243,                                   ! Density {kg/m3}
  837,                                    ! Specific Heat {J/kg-K}
  0.9,                                    ! Thermal Absorptance
  0.65,                                   ! Solar Absorptance
  0.65;                                   ! Visible Absorptance

OS:Construction,
  {4a3172e1-ed30-4c7c-aae7-9f324ef3ac39}, ! Handle
  90.1-2001 Nonres B23 Ext Wall Mass,     ! Name
  ,                                       ! Surface Rendering Name
  {24e9e162-6b2c-4562-9d3b-f841271139b4}, ! Layer 1
  {a0da6e08-0390-4792-9876-9f05574f3b99}, ! Layer 2
  {5bdcc1e2-756a-4bf1-8ce5-9a3d9ce5fd0a}, ! Layer 3
  {5c4f1834-c302-4096-acb9-cd1a9cd2617f}; ! Layer 4

