
OS:Version,
  {eb23581d-b74e-4e1c-8d24-0bb80535b37d}, ! Handle
  0.9.3;                                  ! Version Identifier

OS:Construction,
  {be51331b-354a-4a52-a937-fcf7e02dc1fa}, ! Handle
  90.1-2001 Nonres B23 Ext Wall Mass,     ! Name
  ,                                       ! Surface Rendering Name
  {d75fef02-b444-47e0-992c-fa18ce69332d}, ! Layer 1
  {c6e32e3d-68a4-4a6f-b780-c6a218092dfb}, ! Layer 2
  {640c2143-133a-44f4-94c4-8d48975e4165}, ! Layer 3
  {e983b1c0-0bb2-40e2-b508-41fcb784605d}; ! Layer 4

OS:Material,
  {d75fef02-b444-47e0-992c-fa18ce69332d}, ! Handle
  1IN Stucco,                             ! Name
  Smooth,                                 ! Roughness
  0.0253,                                 ! Thickness {m}
  0.6918,                                 ! Conductivity {W/m-K}
  1858,                                   ! Density {kg/m3}
  837,                                    ! Specific Heat {J/kg-K}
  0.9,                                    ! Thermal Absorptance
  0.92,                                   ! Solar Absorptance
  0.92;                                   ! Visible Absorptance

OS:Material,
  {c6e32e3d-68a4-4a6f-b780-c6a218092dfb}, ! Handle
  8IN Concrete HW,                        ! Name
  MediumRough,                            ! Roughness
  0.2033,                                 ! Thickness {m}
  1.7296,                                 ! Conductivity {W/m-K}
  2243,                                   ! Density {kg/m3}
  837,                                    ! Specific Heat {J/kg-K}
  0.9,                                    ! Thermal Absorptance
  0.65,                                   ! Solar Absorptance
  0.65;                                   ! Visible Absorptance

OS:Material,
  {640c2143-133a-44f4-94c4-8d48975e4165}, ! Handle
  Wall Insulation [8],                    ! Name
  MediumRough,                            ! Roughness
  0.067929,                               ! Thickness {m}
  0.0432,                                 ! Conductivity {W/m-K}
  91,                                     ! Density {kg/m3}
  837,                                    ! Specific Heat {J/kg-K}
  0.9,                                    ! Thermal Absorptance
  0.5,                                    ! Solar Absorptance
  0.5;                                    ! Visible Absorptance

OS:Material,
  {e983b1c0-0bb2-40e2-b508-41fcb784605d}, ! Handle
  1/2IN Gypsum,                           ! Name
  Smooth,                                 ! Roughness
  0.01271,                                ! Thickness {m}
  0.16,                                   ! Conductivity {W/m-K}
  784.9,                                  ! Density {kg/m3}
  830,                                    ! Specific Heat {J/kg-K}
  0.9,                                    ! Thermal Absorptance
  0.92,                                   ! Solar Absorptance
  0.92;                                   ! Visible Absorptance

OS:ComponentCost:LineItem,
  {89b0ae24-dbe0-43ba-878b-fd5e2c3b968e}, ! Handle
  90.1-2001 Nonres B23 Ext Wall Mass,     ! Name
  ,                                       ! Type
  Construction,                           ! Line Item Type
  90.1-2001 Nonres B23 Ext Wall Mass,     ! Item Name
  ,                                       ! Object End Use Key
  ,                                       ! Quantity {dimensionless}
  65.826,                                 ! Material Cost {$}
  CostPerArea;                            ! Material Cost Units

OS:ComponentData,
  {e8db3a87-9d69-42a6-8313-72aa98263cb2}, ! Handle
  Component Data 1,                       ! Name
  {c09d109d-67f1-4309-9e11-4043ebfd719c}, ! UUID
  {5e88306b-c8a8-4c2b-a5fd-e96dc1d99f69}, ! Version UUID
  1363981419,                             ! Creation Timestamp
  1363981419,                             ! Version Timestamp
  {be51331b-354a-4a52-a937-fcf7e02dc1fa}, ! Name of Object 1
  {d75fef02-b444-47e0-992c-fa18ce69332d}, ! Name of Object 2
  {c6e32e3d-68a4-4a6f-b780-c6a218092dfb}, ! Name of Object 3
  {640c2143-133a-44f4-94c4-8d48975e4165}, ! Name of Object 4
  {e983b1c0-0bb2-40e2-b508-41fcb784605d}, ! Name of Object 5
  {89b0ae24-dbe0-43ba-878b-fd5e2c3b968e}; ! Name of Object 6

