
OS:Version,
  {dd9fdd48-2e2b-4cf4-8b93-0399516c3e6f}, ! Handle
  0.9.3;                                  ! Version Identifier

OS:Material,
  {f9069a01-ae1f-4350-9c47-d84250336b42}, ! Handle
  1/2IN Gypsum,                           ! Name
  Smooth,                                 ! Roughness
  0.01271,                                ! Thickness {m}
  0.16,                                   ! Conductivity {W/m-K}
  784.9,                                  ! Density {kg/m3}
  830,                                    ! Specific Heat {J/kg-K}
  0.9,                                    ! Thermal Absorptance
  0.92,                                   ! Solar Absorptance
  0.92;                                   ! Visible Absorptance

OS:Material,
  {37084bea-7662-48d9-a6f8-0051c1b2b40b}, ! Handle
  Wall Insulation [159],                  ! Name
  MediumRough,                            ! Roughness
  0.0812,                                 ! Thickness {m}
  0.045,                                  ! Conductivity {W/m-K}
  265,                                    ! Density {kg/m3}
  836.8,                                  ! Specific Heat {J/kg-K}
  0.9,                                    ! Thermal Absorptance
  0.7,                                    ! Solar Absorptance
  0.7;                                    ! Visible Absorptance

OS:ComponentCost:LineItem,
  {b9c0a6b6-a33e-4f01-80a5-adee6904d67b}, ! Handle
  Title 24-2008 Nonres 13 Ext Wall Steel-Framed, ! Name
  ,                                       ! Type
  Construction,                           ! Line Item Type
  Title 24-2008 Nonres 13 Ext Wall Steel-Framed, ! Item Name
  ,                                       ! Object End Use Key
  ,                                       ! Quantity {dimensionless}
  155.805,                                ! Material Cost {$}
  CostPerArea;                            ! Material Cost Units

OS:Material:NoMass,
  {ed2604c1-d524-44ba-b5cb-d1fa4501d379}, ! Handle
  MAT-SHEATH,                             ! Name
  Rough,                                  ! Roughness
  0.36256,                                ! Thermal Resistance {m2-K/W}
  0.9,                                    ! Thermal Absorptance
  0.7,                                    ! Solar Absorptance
  0.7;                                    ! Visible Absorptance

OS:Construction,
  {63f6560d-9c44-445c-b6a2-13b699fe783b}, ! Handle
  Title 24-2008 Nonres 13 Ext Wall Steel-Framed, ! Name
  ,                                       ! Surface Rendering Name
  {ed2604c1-d524-44ba-b5cb-d1fa4501d379}, ! Layer 1
  {37084bea-7662-48d9-a6f8-0051c1b2b40b}, ! Layer 2
  {f9069a01-ae1f-4350-9c47-d84250336b42}; ! Layer 3

