
OS:Version,
  {029fee33-9d86-4220-9d1d-97315ad54c3b}, ! Handle
  0.9.3;                                  ! Version Identifier

OS:Construction,
  {d11e1a39-c08c-4f60-90a8-f51362d7ad63}, ! Handle
  90.1-2007 Nonres 1A Roof Metal Building, ! Name
  ,                                       ! Surface Rendering Name
  {265a2493-1e38-41bf-bea5-df36f8f6c5aa}, ! Layer 1
  {6239daca-7c04-4bbc-b4b7-27303490076a}; ! Layer 2

OS:Material,
  {265a2493-1e38-41bf-bea5-df36f8f6c5aa}, ! Handle
  Metal Roofing,                          ! Name
  MediumSmooth,                           ! Roughness
  0.001524,                               ! Thickness {m}
  45.006,                                 ! Conductivity {W/m-K}
  7680,                                   ! Density {kg/m3}
  418.4,                                  ! Specific Heat {J/kg-K}
  0.9,                                    ! Thermal Absorptance
  0.7,                                    ! Solar Absorptance
  0.3;                                    ! Visible Absorptance

OS:Material,
  {6239daca-7c04-4bbc-b4b7-27303490076a}, ! Handle
  Roof Insulation [1],                    ! Name
  MediumRough,                            ! Roughness
  0.123533,                               ! Thickness {m}
  0.049,                                  ! Conductivity {W/m-K}
  265,                                    ! Density {kg/m3}
  836.8,                                  ! Specific Heat {J/kg-K}
  0.9,                                    ! Thermal Absorptance
  0.7,                                    ! Solar Absorptance
  0.7;                                    ! Visible Absorptance

OS:ComponentCost:LineItem,
  {1f70e4a4-bbd7-4fd2-963c-dc9859abdf2d}, ! Handle
  90.1-2007 Nonres 1A Roof Metal Building, ! Name
  ,                                       ! Type
  Construction,                           ! Line Item Type
  90.1-2007 Nonres 1A Roof Metal Building, ! Item Name
  ,                                       ! Object End Use Key
  ,                                       ! Quantity {dimensionless}
  38.206,                                 ! Material Cost {$}
  CostPerArea;                            ! Material Cost Units

OS:ComponentData,
  {bf0a5ccf-b528-47ff-864d-e49b9d4164ce}, ! Handle
  Component Data 1,                       ! Name
  {7db255fa-8ba3-4bfc-8b7b-c914583e9fe4}, ! UUID
  {403daff5-4be4-4eac-a433-e62e88df976f}, ! Version UUID
  1363981775,                             ! Creation Timestamp
  1363981775,                             ! Version Timestamp
  {d11e1a39-c08c-4f60-90a8-f51362d7ad63}, ! Name of Object 1
  {265a2493-1e38-41bf-bea5-df36f8f6c5aa}, ! Name of Object 2
  {6239daca-7c04-4bbc-b4b7-27303490076a}, ! Name of Object 3
  {1f70e4a4-bbd7-4fd2-963c-dc9859abdf2d}; ! Name of Object 4

