
OS:Version,
  {3d8a7ba7-2eac-4bc4-8631-c577b9bf6b4a}, ! Handle
  0.9.3;                                  ! Version Identifier

OS:Material,
  {d99a7832-3303-4c21-af31-aed8c92a8c34}, ! Handle
  Roof Insulation [1],                    ! Name
  MediumRough,                            ! Roughness
  0.123533,                               ! Thickness {m}
  0.049,                                  ! Conductivity {W/m-K}
  265,                                    ! Density {kg/m3}
  836.8,                                  ! Specific Heat {J/kg-K}
  0.9,                                    ! Thermal Absorptance
  0.7,                                    ! Solar Absorptance
  0.7;                                    ! Visible Absorptance

OS:Material,
  {d6a0b527-3074-43bf-9384-81f3d5ca9142}, ! Handle
  Metal Roofing,                          ! Name
  MediumSmooth,                           ! Roughness
  0.001524,                               ! Thickness {m}
  45.006,                                 ! Conductivity {W/m-K}
  7680,                                   ! Density {kg/m3}
  418.4,                                  ! Specific Heat {J/kg-K}
  0.9,                                    ! Thermal Absorptance
  0.7,                                    ! Solar Absorptance
  0.3;                                    ! Visible Absorptance

OS:Construction,
  {e2584519-e4d4-475e-bbcb-f8b84a951de4}, ! Handle
  90.1-2007 Nonres 1A Roof Metal Building, ! Name
  ,                                       ! Surface Rendering Name
  {d6a0b527-3074-43bf-9384-81f3d5ca9142}, ! Layer 1
  {d99a7832-3303-4c21-af31-aed8c92a8c34}; ! Layer 2

OS:ComponentCost:LineItem,
  {876237b1-ce2e-43f4-a115-b02fb2f0313c}, ! Handle
  90.1-2007 Nonres 1A Roof Metal Building, ! Name
  ,                                       ! Type
  Construction,                           ! Line Item Type
  90.1-2007 Nonres 1A Roof Metal Building, ! Item Name
  ,                                       ! Object End Use Key
  ,                                       ! Quantity {dimensionless}
  38.206,                                 ! Material Cost {$}
  CostPerArea;                            ! Material Cost Units

