
OS:Version,
  {e6694a5a-3d27-44ac-a36e-562d2f329112}, ! Handle
  0.9.3;                                  ! Version Identifier

OS:ComponentCost:LineItem,
  {f01244de-3b6a-42e6-8ee2-310ae6e4998f}, ! Handle
  90.1-2001 Res B21 Ext Wall Steel-Framed, ! Name
  ,                                       ! Type
  Construction,                           ! Line Item Type
  90.1-2001 Res B21 Ext Wall Steel-Framed, ! Item Name
  ,                                       ! Object End Use Key
  ,                                       ! Quantity {dimensionless}
  94.657,                                 ! Material Cost {$}
  CostPerArea;                            ! Material Cost Units

OS:Material,
  {79d47302-209f-4047-94f9-9f9720fce372}, ! Handle
  1/2IN Gypsum,                           ! Name
  Smooth,                                 ! Roughness
  0.01271,                                ! Thickness {m}
  0.16,                                   ! Conductivity {W/m-K}
  784.9,                                  ! Density {kg/m3}
  830,                                    ! Specific Heat {J/kg-K}
  0.9,                                    ! Thermal Absorptance
  0.92,                                   ! Solar Absorptance
  0.92;                                   ! Visible Absorptance

OS:Construction,
  {2f62cc7f-804b-4f98-abe1-55f9b0693b37}, ! Handle
  90.1-2001 Res B21 Ext Wall Steel-Framed, ! Name
  ,                                       ! Surface Rendering Name
  {94231b36-1725-4447-86b8-60757b81dbce}, ! Layer 1
  {569ff247-d07b-4f26-848a-03adf660ca17}, ! Layer 2
  {79d47302-209f-4047-94f9-9f9720fce372}; ! Layer 3

OS:Material:NoMass,
  {94231b36-1725-4447-86b8-60757b81dbce}, ! Handle
  MAT-SHEATH,                             ! Name
  Rough,                                  ! Roughness
  0.36256,                                ! Thermal Resistance {m2-K/W}
  0.9,                                    ! Thermal Absorptance
  0.7,                                    ! Solar Absorptance
  0.7;                                    ! Visible Absorptance

OS:Material,
  {569ff247-d07b-4f26-848a-03adf660ca17}, ! Handle
  Wall Insulation [10],                   ! Name
  MediumRough,                            ! Roughness
  0.0971136,                              ! Thickness {m}
  0.045,                                  ! Conductivity {W/m-K}
  265,                                    ! Density {kg/m3}
  836.8,                                  ! Specific Heat {J/kg-K}
  0.9,                                    ! Thermal Absorptance
  0.7,                                    ! Solar Absorptance
  0.7;                                    ! Visible Absorptance

