
OS:Version,
  {c576782b-b826-4dd0-b3a5-ee3975ddec3d}, ! Handle
  0.9.3;                                  ! Version Identifier

OS:Construction,
  {19812d82-9743-4a2a-80d7-9bbafe71fd92}, ! Handle
  90.1-2001 Nonres B5 Roof Metal Building, ! Name
  ,                                       ! Surface Rendering Name
  {f3d508f5-06c4-4f09-8aa9-cbd879e31d0d}, ! Layer 1
  {439b41b3-8b88-4905-b47f-e9f4d23921e5}; ! Layer 2

OS:Material,
  {f3d508f5-06c4-4f09-8aa9-cbd879e31d0d}, ! Handle
  Metal Roofing,                          ! Name
  MediumSmooth,                           ! Roughness
  0.001524,                               ! Thickness {m}
  45.006,                                 ! Conductivity {W/m-K}
  7680,                                   ! Density {kg/m3}
  418.4,                                  ! Specific Heat {J/kg-K}
  0.9,                                    ! Thermal Absorptance
  0.7,                                    ! Solar Absorptance
  0.3;                                    ! Visible Absorptance

OS:Material,
  {439b41b3-8b88-4905-b47f-e9f4d23921e5}, ! Handle
  Roof Insulation [1],                    ! Name
  MediumRough,                            ! Roughness
  0.123533,                               ! Thickness {m}
  0.049,                                  ! Conductivity {W/m-K}
  265,                                    ! Density {kg/m3}
  836.8,                                  ! Specific Heat {J/kg-K}
  0.9,                                    ! Thermal Absorptance
  0.7,                                    ! Solar Absorptance
  0.7;                                    ! Visible Absorptance

OS:ComponentCost:LineItem,
  {2c97477a-ca41-4ef7-a71e-03b3a79e201a}, ! Handle
  90.1-2001 Nonres B5 Roof Metal Building, ! Name
  ,                                       ! Type
  Construction,                           ! Line Item Type
  90.1-2001 Nonres B5 Roof Metal Building, ! Item Name
  ,                                       ! Object End Use Key
  ,                                       ! Quantity {dimensionless}
  38.206,                                 ! Material Cost {$}
  CostPerArea;                            ! Material Cost Units

