
OS:Version,
  {54ad5313-643b-4cd8-a0b0-05b9116895c7}, ! Handle
  0.9.3;                                  ! Version Identifier

OS:Construction,
  {0376f090-5928-43b3-9342-1625f7c14f32}, ! Handle
  90.1-2001 Res B10 Window Fixed,         ! Name
  ,                                       ! Surface Rendering Name
  {44b02086-ceb0-4996-9533-6f523c776c7c}; ! Layer 1

OS:WindowMaterial:Glazing,
  {44b02086-ceb0-4996-9533-6f523c776c7c}, ! Handle
  Theoretical Glass [83],                 ! Name
  SpectralAverage,                        ! Optical Data Type
  ,                                       ! Window Glass Spectral Data Set Name
  0.003,                                  ! Thickness {m}
  0.241161,                               ! Solar Transmittance at Normal Incidence
  0.708839,                               ! Front Side Solar Reflectance at Normal Incidence
  0.708839,                               ! Back Side Solar Reflectance at Normal Incidence
  0.261155,                               ! Visible Transmittance at Normal Incidence
  0.688845,                               ! Front Side Visible Reflectance at Normal Incidence
  0.688845,                               ! Back Side Visible Reflectance at Normal Incidence
  0,                                      ! Infrared Transmittance at Normal Incidence
  0.9,                                    ! Front Side Infrared Hemispherical Emissivity
  0.9,                                    ! Back Side Infrared Hemispherical Emissivity
  0.013781;                               ! Conductivity {W/m-K}

OS:ComponentCost:LineItem,
  {ffb82afd-5e16-48f3-9f54-6237aaf86869}, ! Handle
  90.1-2001 Res B10 Window Fixed,         ! Name
  ,                                       ! Type
  Construction,                           ! Line Item Type
  90.1-2001 Res B10 Window Fixed,         ! Item Name
  ,                                       ! Object End Use Key
  ,                                       ! Quantity {dimensionless}
  560.656,                                ! Material Cost {$}
  CostPerArea;                            ! Material Cost Units

