
OS:Version,
  {c8329212-cc47-4b3a-81f6-a729cb428f52}, ! Handle
  0.9.3;                                  ! Version Identifier

OS:Material,
  {05b2f6e4-ddc0-459e-8782-83fc20fb47e7}, ! Handle
  Roof Membrane,                          ! Name
  VeryRough,                              ! Roughness
  0.0095,                                 ! Thickness {m}
  0.16,                                   ! Conductivity {W/m-K}
  1121.29,                                ! Density {kg/m3}
  1460,                                   ! Specific Heat {J/kg-K}
  0.9,                                    ! Thermal Absorptance
  0.7,                                    ! Solar Absorptance
  0.7;                                    ! Visible Absorptance

OS:Material,
  {08f16dd9-8f82-4b3b-a258-7eba483f26a7}, ! Handle
  Roof Insulation,                        ! Name
  MediumRough,                            ! Roughness
  0.124958,                               ! Thickness {m}
  0.049,                                  ! Conductivity {W/m-K}
  265,                                    ! Density {kg/m3}
  836.8,                                  ! Specific Heat {J/kg-K}
  0.9,                                    ! Thermal Absorptance
  0.7,                                    ! Solar Absorptance
  0.7;                                    ! Visible Absorptance

OS:ComponentCost:LineItem,
  {a5ba383e-b1c9-480a-86b1-ef12b340598e}, ! Handle
  90.1-1999 Res B9 Roof IEAD,             ! Name
  ,                                       ! Type
  Construction,                           ! Line Item Type
  90.1-1999 Res B9 Roof IEAD,             ! Item Name
  ,                                       ! Object End Use Key
  ,                                       ! Quantity {dimensionless}
  49.208,                                 ! Material Cost {$}
  CostPerArea;                            ! Material Cost Units

OS:Construction,
  {2443e5be-02e3-43c7-a693-a292cf38658e}, ! Handle
  90.1-1999 Res B9 Roof IEAD,             ! Name
  ,                                       ! Surface Rendering Name
  {05b2f6e4-ddc0-459e-8782-83fc20fb47e7}, ! Layer 1
  {08f16dd9-8f82-4b3b-a258-7eba483f26a7}, ! Layer 2
  {9ef5c5a6-b0f8-48e2-8a8c-1f86bdc16e48}; ! Layer 3

OS:Material,
  {9ef5c5a6-b0f8-48e2-8a8c-1f86bdc16e48}, ! Handle
  Metal Decking,                          ! Name
  MediumSmooth,                           ! Roughness
  0.001524,                               ! Thickness {m}
  45.006,                                 ! Conductivity {W/m-K}
  7680,                                   ! Density {kg/m3}
  418.4,                                  ! Specific Heat {J/kg-K}
  0.9,                                    ! Thermal Absorptance
  0.7,                                    ! Solar Absorptance
  0.3;                                    ! Visible Absorptance

