
OS:Version,
  {edc1827f-dad7-4f0e-a846-9e140cc04303}, ! Handle
  0.9.3;                                  ! Version Identifier

OS:Construction,
  {26c99163-17ce-44f8-bfff-4fd3d05c9ba6}, ! Handle
  Title 24-2008 Nonres 1 Skylight Plastic Skylight with Curb, ! Name
  ,                                       ! Surface Rendering Name
  {6f720c15-7e4d-44b3-a7aa-b79906ba6033}; ! Layer 1

OS:WindowMaterial:Glazing,
  {6f720c15-7e4d-44b3-a7aa-b79906ba6033}, ! Handle
  Theoretical Glass [668],                ! Name
  SpectralAverage,                        ! Optical Data Type
  ,                                       ! Window Glass Spectral Data Set Name
  0.003,                                  ! Thickness {m}
  0.677276,                               ! Solar Transmittance at Normal Incidence
  0.272724,                               ! Front Side Solar Reflectance at Normal Incidence
  0.272724,                               ! Back Side Solar Reflectance at Normal Incidence
  0.689609,                               ! Visible Transmittance at Normal Incidence
  0.260391,                               ! Front Side Visible Reflectance at Normal Incidence
  0.260391,                               ! Back Side Visible Reflectance at Normal Incidence
  0,                                      ! Infrared Transmittance at Normal Incidence
  0.91,                                   ! Front Side Infrared Hemispherical Emissivity
  0.91,                                   ! Back Side Infrared Hemispherical Emissivity
  0.169792;                               ! Conductivity {W/m-K}

OS:ComponentCost:LineItem,
  {f93f7a76-6b75-4e41-8e80-6e08453a8546}, ! Handle
  Title 24-2008 Nonres 1 Skylight Plastic Skylight with Curb, ! Name
  ,                                       ! Type
  Construction,                           ! Line Item Type
  Title 24-2008 Nonres 1 Skylight Plastic Skylight with Curb, ! Item Name
  ,                                       ! Object End Use Key
  ,                                       ! Quantity {dimensionless}
  501.798,                                ! Material Cost {$}
  CostPerArea;                            ! Material Cost Units

