
OS:Version,
  {d79e579b-83b2-40df-9e79-442808aac7fa}, ! Handle
  0.9.3;                                  ! Version Identifier

OS:Material:NoMass,
  {d6e20a5d-26b9-45ef-8f5c-5ddc0ffdf2d7}, ! Handle
  CP02 CARPET PAD EF,                     ! Name
  VeryRough,                              ! Roughness
  0.21648,                                ! Thermal Resistance {m2-K/W}
  0.9,                                    ! Thermal Absorptance
  0.7,                                    ! Solar Absorptance
  0.8;                                    ! Visible Absorptance

OS:Material,
  {3bf86a21-62c4-42a3-9d0c-60ab2bedb7da}, ! Handle
  Floor Insulation [1],                   ! Name
  MediumRough,                            ! Roughness
  0.0463846,                              ! Thickness {m}
  0.045,                                  ! Conductivity {W/m-K}
  265,                                    ! Density {kg/m3}
  836.8,                                  ! Specific Heat {J/kg-K}
  0.9,                                    ! Thermal Absorptance
  0.7,                                    ! Solar Absorptance
  0.7;                                    ! Visible Absorptance

OS:ComponentCost:LineItem,
  {6e3d6786-184f-4cc6-bb50-154712083ea7}, ! Handle
  AEDG K12 Nonres 4B Exposed Floor Mass,  ! Name
  ,                                       ! Type
  Construction,                           ! Line Item Type
  AEDG K12 Nonres 4B Exposed Floor Mass,  ! Item Name
  ,                                       ! Object End Use Key
  ,                                       ! Quantity {dimensionless}
  47.214,                                 ! Material Cost {$}
  CostPerArea;                            ! Material Cost Units

OS:Material,
  {bab32855-daa6-4200-9994-b7d6f4e81676}, ! Handle
  MAT-CC05 8 HW CONCRETE,                 ! Name
  Rough,                                  ! Roughness
  0.20321,                                ! Thickness {m}
  1.311,                                  ! Conductivity {W/m-K}
  2240,                                   ! Density {kg/m3}
  836.8,                                  ! Specific Heat {J/kg-K}
  0.9,                                    ! Thermal Absorptance
  0.7,                                    ! Solar Absorptance
  0.7;                                    ! Visible Absorptance

OS:Construction,
  {10f751a8-bbe6-455c-a3b3-7bc62e2fcfee}, ! Handle
  AEDG K12 Nonres 4B Exposed Floor Mass,  ! Name
  ,                                       ! Surface Rendering Name
  {3bf86a21-62c4-42a3-9d0c-60ab2bedb7da}, ! Layer 1
  {bab32855-daa6-4200-9994-b7d6f4e81676}, ! Layer 2
  {d6e20a5d-26b9-45ef-8f5c-5ddc0ffdf2d7}; ! Layer 3

