
OS:Version,
  {27790566-3ed7-4ae4-895b-5e68d464c363}, !- Handle
  1.1.0;                                  !- Version Identifier

OS:Construction,
  {d38893ad-c56c-43c7-bd0d-c14e501e95f6}, !- Handle
  Trp Clr 3mm/6mm Air,                    !- Name
  ,                                       !- Surface Rendering Name
  {694633cb-c71d-463d-9fd5-f3cab90ee645}, !- Layer 1
  {0befcc9e-f872-4431-8f1e-02b304bedb55}, !- Layer 2
  {694633cb-c71d-463d-9fd5-f3cab90ee645}, !- Layer 3
  {0befcc9e-f872-4431-8f1e-02b304bedb55}, !- Layer 4
  {694633cb-c71d-463d-9fd5-f3cab90ee645}; !- Layer 5

OS:WindowMaterial:Glazing,
  {694633cb-c71d-463d-9fd5-f3cab90ee645}, !- Handle
  CLEAR 3MM,                              !- Name
  SpectralAverage,                        !- Optical Data Type
  ,                                       !- Window Glass Spectral Data Set Name
  0.003,                                  !- Thickness {m}
  0.837,                                  !- Solar Transmittance at Normal Incidence
  0.075,                                  !- Front Side Solar Reflectance at Normal Incidence
  0.075,                                  !- Back Side Solar Reflectance at Normal Incidence
  0.898,                                  !- Visible Transmittance at Normal Incidence
  0.081,                                  !- Front Side Visible Reflectance at Normal Incidence
  0.081,                                  !- Back Side Visible Reflectance at Normal Incidence
  0,                                      !- Infrared Transmittance at Normal Incidence
  0.84,                                   !- Front Side Infrared Hemispherical Emissivity
  0.84,                                   !- Back Side Infrared Hemispherical Emissivity
  0.9;                                    !- Conductivity {W/m-K}

OS:WindowMaterial:Gas,
  {0befcc9e-f872-4431-8f1e-02b304bedb55}, !- Handle
  AIR 6MM,                                !- Name
  Air,                                    !- Gas Type
  0.0063;                                 !- Thickness {m}

