
OS:Version,
  {e295b24b-288e-403a-87a8-87e10415a029}, ! Handle
  0.9.3;                                  ! Version Identifier

OS:WindowMaterial:Glazing,
  {24a67812-6a36-43f4-93a8-ef5f14280166}, ! Handle
  Theoretical Glass [679],                ! Name
  SpectralAverage,                        ! Optical Data Type
  ,                                       ! Window Glass Spectral Data Set Name
  0.003,                                  ! Thickness {m}
  0.387604,                               ! Solar Transmittance at Normal Incidence
  0.562396,                               ! Front Side Solar Reflectance at Normal Incidence
  0.562396,                               ! Back Side Solar Reflectance at Normal Incidence
  0.400004,                               ! Visible Transmittance at Normal Incidence
  0.549996,                               ! Front Side Visible Reflectance at Normal Incidence
  0.549996,                               ! Back Side Visible Reflectance at Normal Incidence
  0,                                      ! Infrared Transmittance at Normal Incidence
  0.91,                                   ! Front Side Infrared Hemispherical Emissivity
  0.91,                                   ! Back Side Infrared Hemispherical Emissivity
  0.387053;                               ! Conductivity {W/m-K}

OS:ComponentCost:LineItem,
  {78883ecc-1b04-42f8-a6b5-119f0d1752e8}, ! Handle
  Title 24-2008 Nonres 3 Skylight Glass Skylight with Curb, ! Name
  ,                                       ! Type
  Construction,                           ! Line Item Type
  Title 24-2008 Nonres 3 Skylight Glass Skylight with Curb, ! Item Name
  ,                                       ! Object End Use Key
  ,                                       ! Quantity {dimensionless}
  501.798,                                ! Material Cost {$}
  CostPerArea;                            ! Material Cost Units

OS:Construction,
  {abb18773-d5ba-4215-bafc-5a55cb2bf0bb}, ! Handle
  Title 24-2008 Nonres 3 Skylight Glass Skylight with Curb, ! Name
  ,                                       ! Surface Rendering Name
  {24a67812-6a36-43f4-93a8-ef5f14280166}; ! Layer 1

