
OS:Version,
  {06864d1e-a5bb-4ce0-b3fc-01fc1eb2c299}, ! Handle
  0.9.3;                                  ! Version Identifier

OS:Material,
  {10e790e7-5025-4721-8734-81fcb38cf371}, ! Handle
  Roof Insulation [1],                    ! Name
  MediumRough,                            ! Roughness
  0.123533,                               ! Thickness {m}
  0.049,                                  ! Conductivity {W/m-K}
  265,                                    ! Density {kg/m3}
  836.8,                                  ! Specific Heat {J/kg-K}
  0.9,                                    ! Thermal Absorptance
  0.7,                                    ! Solar Absorptance
  0.7;                                    ! Visible Absorptance

OS:Construction,
  {7f43e10e-a725-49ad-bc3e-68467af0b008}, ! Handle
  90.1-1999 Nonres B14 Roof Metal Building, ! Name
  ,                                       ! Surface Rendering Name
  {8ab8485e-165b-46ec-863c-3379a9213ec9}, ! Layer 1
  {10e790e7-5025-4721-8734-81fcb38cf371}; ! Layer 2

OS:Material,
  {8ab8485e-165b-46ec-863c-3379a9213ec9}, ! Handle
  Metal Roofing,                          ! Name
  MediumSmooth,                           ! Roughness
  0.001524,                               ! Thickness {m}
  45.006,                                 ! Conductivity {W/m-K}
  7680,                                   ! Density {kg/m3}
  418.4,                                  ! Specific Heat {J/kg-K}
  0.9,                                    ! Thermal Absorptance
  0.7,                                    ! Solar Absorptance
  0.3;                                    ! Visible Absorptance

OS:ComponentCost:LineItem,
  {79ffd741-5189-46e8-92e0-957d7d1cded6}, ! Handle
  90.1-1999 Nonres B14 Roof Metal Building, ! Name
  ,                                       ! Type
  Construction,                           ! Line Item Type
  90.1-1999 Nonres B14 Roof Metal Building, ! Item Name
  ,                                       ! Object End Use Key
  ,                                       ! Quantity {dimensionless}
  38.206,                                 ! Material Cost {$}
  CostPerArea;                            ! Material Cost Units

