
OS:Version,
  {f3e1b4e5-dbe7-41fc-ba65-72b92ad693b5}, ! Handle
  0.9.3;                                  ! Version Identifier

OS:Construction,
  {aecf22e5-a456-43f2-8a2a-4dc8a7126342}, ! Handle
  90.1-2007 Res 2A Skylight without Curb, ! Name
  ,                                       ! Surface Rendering Name
  {7997c864-0791-45ff-a84a-2bfa92a964c0}; ! Layer 1

OS:WindowMaterial:Glazing,
  {7997c864-0791-45ff-a84a-2bfa92a964c0}, ! Handle
  Theoretical Glass [173],                ! Name
  SpectralAverage,                        ! Optical Data Type
  ,                                       ! Window Glass Spectral Data Set Name
  0.003,                                  ! Thickness {m}
  0.177138,                               ! Solar Transmittance at Normal Incidence
  0.772862,                               ! Front Side Solar Reflectance at Normal Incidence
  0.772862,                               ! Back Side Solar Reflectance at Normal Incidence
  0.24137,                                ! Visible Transmittance at Normal Incidence
  0.70863,                                ! Front Side Visible Reflectance at Normal Incidence
  0.70863,                                ! Back Side Visible Reflectance at Normal Incidence
  0,                                      ! Infrared Transmittance at Normal Incidence
  0.999,                                  ! Front Side Infrared Hemispherical Emissivity
  0.999,                                  ! Back Side Infrared Hemispherical Emissivity
  296.427;                                ! Conductivity {W/m-K}

OS:ComponentCost:LineItem,
  {e421bb4e-2c36-492a-a748-e6e8e51167be}, ! Handle
  90.1-2007 Res 2A Skylight without Curb, ! Name
  ,                                       ! Type
  Construction,                           ! Line Item Type
  90.1-2007 Res 2A Skylight without Curb, ! Item Name
  ,                                       ! Object End Use Key
  ,                                       ! Quantity {dimensionless}
  498.248,                                ! Material Cost {$}
  CostPerArea;                            ! Material Cost Units

OS:ComponentData,
  {8df11fbd-a854-4684-b9b0-e98ce6d06864}, ! Handle
  Component Data 1,                       ! Name
  {8f96881f-2e7e-402e-b8ff-1ecf291319c5}, ! UUID
  {122ae6c8-58f4-4d77-b378-b383cf3f27a2}, ! Version UUID
  1363981842,                             ! Creation Timestamp
  1363981842,                             ! Version Timestamp
  {aecf22e5-a456-43f2-8a2a-4dc8a7126342}, ! Name of Object 1
  {7997c864-0791-45ff-a84a-2bfa92a964c0}, ! Name of Object 2
  {e421bb4e-2c36-492a-a748-e6e8e51167be}; ! Name of Object 3

