
OS:Version,
  {fd8255c2-6460-4497-bab3-dc229923f8d2}, ! Handle
  0.9.3;                                  ! Version Identifier

OS:ComponentCost:LineItem,
  {e37776e5-7cc9-4344-bfbb-b1196484caa9}, ! Handle
  90.1-2007 Res 2A Skylight without Curb, ! Name
  ,                                       ! Type
  Construction,                           ! Line Item Type
  90.1-2007 Res 2A Skylight without Curb, ! Item Name
  ,                                       ! Object End Use Key
  ,                                       ! Quantity {dimensionless}
  498.248,                                ! Material Cost {$}
  CostPerArea;                            ! Material Cost Units

OS:Construction,
  {4fc082ec-505c-432c-a87c-909d31e18166}, ! Handle
  90.1-2007 Res 2A Skylight without Curb, ! Name
  ,                                       ! Surface Rendering Name
  {7880455e-cc1a-41c1-9994-4571c519520a}; ! Layer 1

OS:WindowMaterial:Glazing,
  {7880455e-cc1a-41c1-9994-4571c519520a}, ! Handle
  Theoretical Glass [173],                ! Name
  SpectralAverage,                        ! Optical Data Type
  ,                                       ! Window Glass Spectral Data Set Name
  0.003,                                  ! Thickness {m}
  0.177138,                               ! Solar Transmittance at Normal Incidence
  0.772862,                               ! Front Side Solar Reflectance at Normal Incidence
  0.772862,                               ! Back Side Solar Reflectance at Normal Incidence
  0.24137,                                ! Visible Transmittance at Normal Incidence
  0.70863,                                ! Front Side Visible Reflectance at Normal Incidence
  0.70863,                                ! Back Side Visible Reflectance at Normal Incidence
  0,                                      ! Infrared Transmittance at Normal Incidence
  0.999,                                  ! Front Side Infrared Hemispherical Emissivity
  0.999,                                  ! Back Side Infrared Hemispherical Emissivity
  296.427;                                ! Conductivity {W/m-K}

