
OS:Version,
  {ad5cf5be-de4f-434a-a8a7-d3fbd2901d53}, ! Handle
  0.9.3;                                  ! Version Identifier

OS:ComponentCost:LineItem,
  {eae3a522-b5fa-4c43-8dd0-ea069b5e9f25}, ! Handle
  189.1-2009 Res 2A Roof Metal Building,  ! Name
  ,                                       ! Type
  Construction,                           ! Line Item Type
  189.1-2009 Res 2A Roof Metal Building,  ! Item Name
  ,                                       ! Object End Use Key
  ,                                       ! Quantity {dimensionless}
  47.657,                                 ! Material Cost {$}
  CostPerArea;                            ! Material Cost Units

OS:Material,
  {80284076-5b2c-4afa-9dd3-7d30d96c91d8}, ! Handle
  Roof Insulation [22],                   ! Name
  MediumRough,                            ! Roughness
  0.23578,                                ! Thickness {m}
  0.049,                                  ! Conductivity {W/m-K}
  265,                                    ! Density {kg/m3}
  836.8,                                  ! Specific Heat {J/kg-K}
  0.9,                                    ! Thermal Absorptance
  0.7,                                    ! Solar Absorptance
  0.7;                                    ! Visible Absorptance

OS:Material,
  {23d572c7-7e64-4d34-9e1e-5b94191183a5}, ! Handle
  Metal Roofing,                          ! Name
  MediumSmooth,                           ! Roughness
  0.001524,                               ! Thickness {m}
  45.006,                                 ! Conductivity {W/m-K}
  7680,                                   ! Density {kg/m3}
  418.4,                                  ! Specific Heat {J/kg-K}
  0.9,                                    ! Thermal Absorptance
  0.7,                                    ! Solar Absorptance
  0.3;                                    ! Visible Absorptance

OS:Construction,
  {20a229c7-729b-41ca-b282-5cff0a4e099a}, ! Handle
  189.1-2009 Res 2A Roof Metal Building,  ! Name
  ,                                       ! Surface Rendering Name
  {23d572c7-7e64-4d34-9e1e-5b94191183a5}, ! Layer 1
  {80284076-5b2c-4afa-9dd3-7d30d96c91d8}; ! Layer 2

