
OS:Version,
  {c10fdabf-b697-4936-af35-edb320c19d78}, ! Handle
  0.9.3;                                  ! Version Identifier

OS:ComponentCost:LineItem,
  {a2761a62-dc5f-4ce1-87a4-f1c9b3ff884e}, ! Handle
  189.1-2009 Nonres 2A Attic Floor,       ! Name
  ,                                       ! Type
  Construction,                           ! Line Item Type
  189.1-2009 Nonres 2A Attic Floor,       ! Item Name
  ,                                       ! Object End Use Key
  ,                                       ! Quantity {dimensionless}
  37.058,                                 ! Material Cost {$}
  CostPerArea;                            ! Material Cost Units

OS:Material,
  {d57dfba2-d5bd-4a1a-95e3-469775bd6d4e}, ! Handle
  1/2IN Gypsum Bottom,                    ! Name
  Smooth,                                 ! Roughness
  0.01271,                                ! Thickness {m}
  0.16,                                   ! Conductivity {W/m-K}
  784.9,                                  ! Density {kg/m3}
  830,                                    ! Specific Heat {J/kg-K}
  0.9,                                    ! Thermal Absorptance
  0.92,                                   ! Solar Absorptance
  0.92;                                   ! Visible Absorptance

OS:Construction,
  {5b44525c-4b6a-4acd-8971-8c92d15e780e}, ! Handle
  189.1-2009 Nonres 2A Attic Floor,       ! Name
  ,                                       ! Surface Rendering Name
  {5dd0dccd-fec6-4149-b486-da35702740a7}, ! Layer 1
  {beedb5c7-0d5c-4a5b-ad4d-7d88af4768d1}, ! Layer 2
  {d57dfba2-d5bd-4a1a-95e3-469775bd6d4e}; ! Layer 3

OS:Material,
  {5dd0dccd-fec6-4149-b486-da35702740a7}, ! Handle
  1/2IN Gypsum Top,                       ! Name
  Smooth,                                 ! Roughness
  0.01271,                                ! Thickness {m}
  0.16,                                   ! Conductivity {W/m-K}
  784.9,                                  ! Density {kg/m3}
  830,                                    ! Specific Heat {J/kg-K}
  0.9,                                    ! Thermal Absorptance
  0.92,                                   ! Solar Absorptance
  0.92;                                   ! Visible Absorptance

OS:Material,
  {beedb5c7-0d5c-4a5b-ad4d-7d88af4768d1}, ! Handle
  AtticFloor Insulation [4],              ! Name
  MediumRough,                            ! Roughness
  0.392234,                               ! Thickness {m}
  0.049,                                  ! Conductivity {W/m-K}
  265,                                    ! Density {kg/m3}
  836.8,                                  ! Specific Heat {J/kg-K}
  0.9,                                    ! Thermal Absorptance
  0.7,                                    ! Solar Absorptance
  0.7;                                    ! Visible Absorptance

