
OS:Version,
  {76efc7a8-72a9-478c-8b47-6df4d2649833}, ! Handle
  0.9.3;                                  ! Version Identifier

OS:Material,
  {f3091363-4715-4e12-b3a8-e786a98814dc}, ! Handle
  Metal Roofing,                          ! Name
  MediumSmooth,                           ! Roughness
  0.001524,                               ! Thickness {m}
  45.006,                                 ! Conductivity {W/m-K}
  7680,                                   ! Density {kg/m3}
  418.4,                                  ! Specific Heat {J/kg-K}
  0.9,                                    ! Thermal Absorptance
  0.7,                                    ! Solar Absorptance
  0.3;                                    ! Visible Absorptance

OS:ComponentCost:LineItem,
  {f0fe3091-ea13-4d29-802b-5110d7f36a4b}, ! Handle
  90.1-1999 Nonres B1 Roof Metal Building, ! Name
  ,                                       ! Type
  Construction,                           ! Line Item Type
  90.1-1999 Nonres B1 Roof Metal Building, ! Item Name
  ,                                       ! Object End Use Key
  ,                                       ! Quantity {dimensionless}
  38.206,                                 ! Material Cost {$}
  CostPerArea;                            ! Material Cost Units

OS:Construction,
  {dde818ba-1648-4a57-bdc0-c49120503c8b}, ! Handle
  90.1-1999 Nonres B1 Roof Metal Building, ! Name
  ,                                       ! Surface Rendering Name
  {f3091363-4715-4e12-b3a8-e786a98814dc}, ! Layer 1
  {e51759b9-0b29-4422-b8f3-1781be5adcb9}; ! Layer 2

OS:Material,
  {e51759b9-0b29-4422-b8f3-1781be5adcb9}, ! Handle
  Roof Insulation [1],                    ! Name
  MediumRough,                            ! Roughness
  0.123533,                               ! Thickness {m}
  0.049,                                  ! Conductivity {W/m-K}
  265,                                    ! Density {kg/m3}
  836.8,                                  ! Specific Heat {J/kg-K}
  0.9,                                    ! Thermal Absorptance
  0.7,                                    ! Solar Absorptance
  0.7;                                    ! Visible Absorptance

