
OS:Version,
  {14a8920a-8e62-4849-ba2e-2f60acb2b538}, ! Handle
  0.9.3;                                  ! Version Identifier

OS:WindowMaterial:Glazing,
  {a034be3a-6d82-48b0-bcce-1eefec8b410f}, ! Handle
  Theoretical Glass [129],                ! Name
  SpectralAverage,                        ! Optical Data Type
  ,                                       ! Window Glass Spectral Data Set Name
  0.003,                                  ! Thickness {m}
  0.177138,                               ! Solar Transmittance at Normal Incidence
  0.772862,                               ! Front Side Solar Reflectance at Normal Incidence
  0.772862,                               ! Back Side Solar Reflectance at Normal Incidence
  0.242683,                               ! Visible Transmittance at Normal Incidence
  0.707317,                               ! Front Side Visible Reflectance at Normal Incidence
  0.707317,                               ! Back Side Visible Reflectance at Normal Incidence
  0,                                      ! Infrared Transmittance at Normal Incidence
  0.999,                                  ! Front Side Infrared Hemispherical Emissivity
  0.999,                                  ! Back Side Infrared Hemispherical Emissivity
  299.383;                                ! Conductivity {W/m-K}

OS:Construction,
  {f05de3b3-0b45-4dd2-bb78-6ef6445d5dd5}, ! Handle
  90.1-2004 Res 2A Skylight without Curb, ! Name
  ,                                       ! Surface Rendering Name
  {a034be3a-6d82-48b0-bcce-1eefec8b410f}; ! Layer 1

OS:ComponentCost:LineItem,
  {62e66eb2-2fe7-49c2-a665-f7e57348f2c3}, ! Handle
  90.1-2004 Res 2A Skylight without Curb, ! Name
  ,                                       ! Type
  Construction,                           ! Line Item Type
  90.1-2004 Res 2A Skylight without Curb, ! Item Name
  ,                                       ! Object End Use Key
  ,                                       ! Quantity {dimensionless}
  498.248,                                ! Material Cost {$}
  CostPerArea;                            ! Material Cost Units

