
OS:Version,
  {69bead25-a225-40cc-b50c-ba2afd5802fa}, ! Handle
  0.9.3;                                  ! Version Identifier

OS:Construction,
  {e6070548-e9a6-4468-8391-b5293142a210}, ! Handle
  Title 24-2008 Nonres 1 Roof Attic and Other, ! Name
  ,                                       ! Surface Rendering Name
  {429da429-de66-4788-8fed-436bacb3beac}, ! Layer 1
  {2325e578-a01d-434d-899f-ce5e165abe01}, ! Layer 2
  {bbfc533c-5dfd-4ee7-98d0-fff2dc76fe2d}, ! Layer 3
  {ee0d4cdf-7325-4936-b9e3-f4a723e3a4e2}; ! Layer 4

OS:Material,
  {429da429-de66-4788-8fed-436bacb3beac}, ! Handle
  Wood Shingles [1],                      ! Name
  VeryRough,                              ! Roughness
  0.0178,                                 ! Thickness {m}
  0.115,                                  ! Conductivity {W/m-K}
  513,                                    ! Density {kg/m3}
  1255,                                   ! Specific Heat {J/kg-K}
  0.9,                                    ! Thermal Absorptance
  0.78,                                   ! Solar Absorptance
  0.85;                                   ! Visible Absorptance

OS:Material,
  {2325e578-a01d-434d-899f-ce5e165abe01}, ! Handle
  1IN Wood Decking,                       ! Name
  MediumSmooth,                           ! Roughness
  0.0254,                                 ! Thickness {m}
  0.1211,                                 ! Conductivity {W/m-K}
  593,                                    ! Density {kg/m3}
  2510,                                   ! Specific Heat {J/kg-K}
  0.9,                                    ! Thermal Absorptance
  0.78,                                   ! Solar Absorptance
  0.78;                                   ! Visible Absorptance

OS:Material,
  {bbfc533c-5dfd-4ee7-98d0-fff2dc76fe2d}, ! Handle
  Roof Insulation [104],                  ! Name
  MediumRough,                            ! Roughness
  0.144987,                               ! Thickness {m}
  0.049,                                  ! Conductivity {W/m-K}
  265,                                    ! Density {kg/m3}
  836.8,                                  ! Specific Heat {J/kg-K}
  0.9,                                    ! Thermal Absorptance
  0.7,                                    ! Solar Absorptance
  0.7;                                    ! Visible Absorptance

OS:Material,
  {ee0d4cdf-7325-4936-b9e3-f4a723e3a4e2}, ! Handle
  1/2IN Gypsum,                           ! Name
  Smooth,                                 ! Roughness
  0.01271,                                ! Thickness {m}
  0.16,                                   ! Conductivity {W/m-K}
  784.9,                                  ! Density {kg/m3}
  830,                                    ! Specific Heat {J/kg-K}
  0.9,                                    ! Thermal Absorptance
  0.92,                                   ! Solar Absorptance
  0.92;                                   ! Visible Absorptance

OS:ComponentCost:LineItem,
  {eae62f91-67e6-49c4-a6b0-b922a3db5e18}, ! Handle
  Title 24-2008 Nonres 1 Roof Attic and Other, ! Name
  ,                                       ! Type
  Construction,                           ! Line Item Type
  Title 24-2008 Nonres 1 Roof Attic and Other, ! Item Name
  ,                                       ! Object End Use Key
  ,                                       ! Quantity {dimensionless}
  32.203,                                 ! Material Cost {$}
  CostPerArea;                            ! Material Cost Units

OS:ComponentData,
  {3df8ff2c-9738-4580-9bb4-8edcf04fbd69}, ! Handle
  Component Data 1,                       ! Name
  {6e5d1b17-7d72-4551-a2a0-5b1a539175be}, ! UUID
  {5db82ed5-5c7f-44b3-8d4b-c4fd7e3c742b}, ! Version UUID
  1363981980,                             ! Creation Timestamp
  1363981980,                             ! Version Timestamp
  {e6070548-e9a6-4468-8391-b5293142a210}, ! Name of Object 1
  {429da429-de66-4788-8fed-436bacb3beac}, ! Name of Object 2
  {2325e578-a01d-434d-899f-ce5e165abe01}, ! Name of Object 3
  {bbfc533c-5dfd-4ee7-98d0-fff2dc76fe2d}, ! Name of Object 4
  {ee0d4cdf-7325-4936-b9e3-f4a723e3a4e2}, ! Name of Object 5
  {eae62f91-67e6-49c4-a6b0-b922a3db5e18}; ! Name of Object 6

