
OS:Version,
  {aebc5ba8-29a3-4413-b16f-0d04079a5a7e}, ! Handle
  0.9.3;                                  ! Version Identifier

OS:ComponentCost:LineItem,
  {d82d0526-4c75-4359-b9cf-4cd30957e4f1}, ! Handle
  Title 24-2008 Nonres 1 Roof Attic and Other, ! Name
  ,                                       ! Type
  Construction,                           ! Line Item Type
  Title 24-2008 Nonres 1 Roof Attic and Other, ! Item Name
  ,                                       ! Object End Use Key
  ,                                       ! Quantity {dimensionless}
  32.203,                                 ! Material Cost {$}
  CostPerArea;                            ! Material Cost Units

OS:Construction,
  {4bb72d3c-a15e-499f-9cff-e3962b616c5c}, ! Handle
  Title 24-2008 Nonres 1 Roof Attic and Other, ! Name
  ,                                       ! Surface Rendering Name
  {239e3f50-5809-4ea5-8e35-93c99cce1698}, ! Layer 1
  {28efcedb-a718-4425-b176-6095da24b680}, ! Layer 2
  {b006ed74-d3c8-4d07-90eb-e76b0b56f465}, ! Layer 3
  {70629c65-3d1e-41c8-bd14-84a1ba93d849}; ! Layer 4

OS:Material,
  {239e3f50-5809-4ea5-8e35-93c99cce1698}, ! Handle
  Wood Shingles [1],                      ! Name
  VeryRough,                              ! Roughness
  0.0178,                                 ! Thickness {m}
  0.115,                                  ! Conductivity {W/m-K}
  513,                                    ! Density {kg/m3}
  1255,                                   ! Specific Heat {J/kg-K}
  0.9,                                    ! Thermal Absorptance
  0.78,                                   ! Solar Absorptance
  0.85;                                   ! Visible Absorptance

OS:Material,
  {28efcedb-a718-4425-b176-6095da24b680}, ! Handle
  1IN Wood Decking,                       ! Name
  MediumSmooth,                           ! Roughness
  0.0254,                                 ! Thickness {m}
  0.1211,                                 ! Conductivity {W/m-K}
  593,                                    ! Density {kg/m3}
  2510,                                   ! Specific Heat {J/kg-K}
  0.9,                                    ! Thermal Absorptance
  0.78,                                   ! Solar Absorptance
  0.78;                                   ! Visible Absorptance

OS:Material,
  {b006ed74-d3c8-4d07-90eb-e76b0b56f465}, ! Handle
  Roof Insulation [104],                  ! Name
  MediumRough,                            ! Roughness
  0.144987,                               ! Thickness {m}
  0.049,                                  ! Conductivity {W/m-K}
  265,                                    ! Density {kg/m3}
  836.8,                                  ! Specific Heat {J/kg-K}
  0.9,                                    ! Thermal Absorptance
  0.7,                                    ! Solar Absorptance
  0.7;                                    ! Visible Absorptance

OS:Material,
  {70629c65-3d1e-41c8-bd14-84a1ba93d849}, ! Handle
  1/2IN Gypsum,                           ! Name
  Smooth,                                 ! Roughness
  0.01271,                                ! Thickness {m}
  0.16,                                   ! Conductivity {W/m-K}
  784.9,                                  ! Density {kg/m3}
  830,                                    ! Specific Heat {J/kg-K}
  0.9,                                    ! Thermal Absorptance
  0.92,                                   ! Solar Absorptance
  0.92;                                   ! Visible Absorptance

