
OS:Version,
  {8e5d4672-2c4a-477d-9dd8-abae15755f73}, !- Handle
  1.1.0;                                  !- Version Identifier

OS:Construction,
  {742a45a5-cc99-465e-9fe7-74a5a336a6f6}, !- Handle
  Dbl Bronze 3mm/13mm Air,                !- Name
  ,                                       !- Surface Rendering Name
  {538ed682-2852-4491-83a5-87c357fb2f30}, !- Layer 1
  {6f789ad2-686d-487a-9c24-0d2d8bfc6b25}, !- Layer 2
  {01613cf5-d26f-4d38-8ee5-80f5a8eab199}; !- Layer 3

OS:WindowMaterial:Glazing,
  {538ed682-2852-4491-83a5-87c357fb2f30}, !- Handle
  BRONZE 3MM,                             !- Name
  SpectralAverage,                        !- Optical Data Type
  ,                                       !- Window Glass Spectral Data Set Name
  0.003,                                  !- Thickness {m}
  0.645,                                  !- Solar Transmittance at Normal Incidence
  0.062,                                  !- Front Side Solar Reflectance at Normal Incidence
  0.062,                                  !- Back Side Solar Reflectance at Normal Incidence
  0.685,                                  !- Visible Transmittance at Normal Incidence
  0.065,                                  !- Front Side Visible Reflectance at Normal Incidence
  0.065,                                  !- Back Side Visible Reflectance at Normal Incidence
  0,                                      !- Infrared Transmittance at Normal Incidence
  0.84,                                   !- Front Side Infrared Hemispherical Emissivity
  0.84,                                   !- Back Side Infrared Hemispherical Emissivity
  0.9;                                    !- Conductivity {W/m-K}

OS:WindowMaterial:Gas,
  {6f789ad2-686d-487a-9c24-0d2d8bfc6b25}, !- Handle
  AIR 13MM,                               !- Name
  Air,                                    !- Gas Type
  0.0127;                                 !- Thickness {m}

OS:WindowMaterial:Glazing,
  {01613cf5-d26f-4d38-8ee5-80f5a8eab199}, !- Handle
  CLEAR 3MM,                              !- Name
  SpectralAverage,                        !- Optical Data Type
  ,                                       !- Window Glass Spectral Data Set Name
  0.003,                                  !- Thickness {m}
  0.837,                                  !- Solar Transmittance at Normal Incidence
  0.075,                                  !- Front Side Solar Reflectance at Normal Incidence
  0.075,                                  !- Back Side Solar Reflectance at Normal Incidence
  0.898,                                  !- Visible Transmittance at Normal Incidence
  0.081,                                  !- Front Side Visible Reflectance at Normal Incidence
  0.081,                                  !- Back Side Visible Reflectance at Normal Incidence
  0,                                      !- Infrared Transmittance at Normal Incidence
  0.84,                                   !- Front Side Infrared Hemispherical Emissivity
  0.84,                                   !- Back Side Infrared Hemispherical Emissivity
  0.9;                                    !- Conductivity {W/m-K}

OS:ComponentData,
  {1eca87ff-6b33-45aa-a786-c6edfb776c2c}, !- Handle
  Component Data 1,                       !- Name
  {34684423-a061-4162-bc9d-4782402b0053}, !- UUID
  {3a8a6c46-27b1-4c34-87ae-2d50c7912b10}, !- Version UUID
  1384380191,                             !- Creation Timestamp
  1384380191,                             !- Version Timestamp
  {742a45a5-cc99-465e-9fe7-74a5a336a6f6}, !- Name of Object 1
  {538ed682-2852-4491-83a5-87c357fb2f30}, !- Name of Object 2
  {6f789ad2-686d-487a-9c24-0d2d8bfc6b25}, !- Name of Object 3
  {01613cf5-d26f-4d38-8ee5-80f5a8eab199}; !- Name of Object 4

