
OS:Version,
  {033bb63f-d83e-4c28-b08d-ad11df5ee2cb}, !- Handle
  1.1.0;                                  !- Version Identifier

OS:Construction,
  {6b018db7-912b-4398-8405-bc02e1eed71d}, !- Handle
  Dbl Bronze 3mm/13mm Air,                !- Name
  ,                                       !- Surface Rendering Name
  {cb23a79d-49d2-4e87-a408-c5ce68413453}, !- Layer 1
  {a060c9ad-5e8b-4cef-b140-9d7f3c35732d}, !- Layer 2
  {e7f910eb-e0b7-4b09-add3-aedc32b970c4}; !- Layer 3

OS:WindowMaterial:Glazing,
  {cb23a79d-49d2-4e87-a408-c5ce68413453}, !- Handle
  BRONZE 3MM,                             !- Name
  SpectralAverage,                        !- Optical Data Type
  ,                                       !- Window Glass Spectral Data Set Name
  0.003,                                  !- Thickness {m}
  0.645,                                  !- Solar Transmittance at Normal Incidence
  0.062,                                  !- Front Side Solar Reflectance at Normal Incidence
  0.062,                                  !- Back Side Solar Reflectance at Normal Incidence
  0.685,                                  !- Visible Transmittance at Normal Incidence
  0.065,                                  !- Front Side Visible Reflectance at Normal Incidence
  0.065,                                  !- Back Side Visible Reflectance at Normal Incidence
  0,                                      !- Infrared Transmittance at Normal Incidence
  0.84,                                   !- Front Side Infrared Hemispherical Emissivity
  0.84,                                   !- Back Side Infrared Hemispherical Emissivity
  0.9;                                    !- Conductivity {W/m-K}

OS:WindowMaterial:Gas,
  {a060c9ad-5e8b-4cef-b140-9d7f3c35732d}, !- Handle
  AIR 13MM,                               !- Name
  Air,                                    !- Gas Type
  0.0127;                                 !- Thickness {m}

OS:WindowMaterial:Glazing,
  {e7f910eb-e0b7-4b09-add3-aedc32b970c4}, !- Handle
  CLEAR 3MM,                              !- Name
  SpectralAverage,                        !- Optical Data Type
  ,                                       !- Window Glass Spectral Data Set Name
  0.003,                                  !- Thickness {m}
  0.837,                                  !- Solar Transmittance at Normal Incidence
  0.075,                                  !- Front Side Solar Reflectance at Normal Incidence
  0.075,                                  !- Back Side Solar Reflectance at Normal Incidence
  0.898,                                  !- Visible Transmittance at Normal Incidence
  0.081,                                  !- Front Side Visible Reflectance at Normal Incidence
  0.081,                                  !- Back Side Visible Reflectance at Normal Incidence
  0,                                      !- Infrared Transmittance at Normal Incidence
  0.84,                                   !- Front Side Infrared Hemispherical Emissivity
  0.84,                                   !- Back Side Infrared Hemispherical Emissivity
  0.9;                                    !- Conductivity {W/m-K}

