
OS:Version,
  {5238a55e-a254-414c-a031-da01abfdb0ec}, ! Handle
  0.9.3;                                  ! Version Identifier

OS:Construction,
  {f2717caf-56b9-4347-82a5-7fcba4b2cd38}, ! Handle
  90.1-2007 Nonres 5B Ext Slab Unheated - 4in Slab with Carpet, ! Name
  ,                                       ! Surface Rendering Name
  {3ba1aafe-c12f-4a92-be63-b104a9564a98}, ! Layer 1
  {2062af52-a630-46cc-a346-20238fffb532}; ! Layer 2

OS:Material,
  {3ba1aafe-c12f-4a92-be63-b104a9564a98}, ! Handle
  MAT-CC05 4 HW CONCRETE,                 ! Name
  Rough,                                  ! Roughness
  0.1016,                                 ! Thickness {m}
  1.311,                                  ! Conductivity {W/m-K}
  2240,                                   ! Density {kg/m3}
  836.8,                                  ! Specific Heat {J/kg-K}
  0.9,                                    ! Thermal Absorptance
  0.7,                                    ! Solar Absorptance
  0.7;                                    ! Visible Absorptance

OS:Material:NoMass,
  {2062af52-a630-46cc-a346-20238fffb532}, ! Handle
  CP02 CARPET PAD,                        ! Name
  VeryRough,                              ! Roughness
  0.21648,                                ! Thermal Resistance {m2-K/W}
  0.9,                                    ! Thermal Absorptance
  0.7,                                    ! Solar Absorptance
  0.8;                                    ! Visible Absorptance

OS:ComponentCost:LineItem,
  {1a3ef693-7990-4b48-9a2f-5bdc3500c4c5}, ! Handle
  90.1-2007 Nonres 5B Ext Slab Unheated - 4in Slab with Carpet, ! Name
  ,                                       ! Type
  Construction,                           ! Line Item Type
  90.1-2007 Nonres 5B Ext Slab Unheated - 4in Slab with Carpet, ! Item Name
  ,                                       ! Object End Use Key
  ,                                       ! Quantity {dimensionless}
  45.52,                                  ! Material Cost {$}
  CostPerArea;                            ! Material Cost Units

