
OS:Version,
  {7cc5d6a9-6a81-4c6a-8418-38c6db2e3fcd}, ! Handle
  0.9.3;                                  ! Version Identifier

OS:Construction,
  {6ed2c4c6-8308-41f9-bc31-183e9a56d4d8}, ! Handle
  90.1 Constructions Roof Attic and Other R-19.0, ! Name
  ,                                       ! Surface Rendering Name
  {06107c83-1663-41e3-a36c-01e44f3306f9}, ! Layer 1
  {9cdc4b59-593a-456c-913b-c655c8b53f2d}, ! Layer 2
  {13e05459-bb2c-40e3-aa2c-72096a15140d}, ! Layer 3
  {a98ae6c3-2b95-41b8-9a35-9186458b86f8}; ! Layer 4

OS:Material,
  {06107c83-1663-41e3-a36c-01e44f3306f9}, ! Handle
  Wood Shingles,                          ! Name
  VeryRough,                              ! Roughness
  0.0178,                                 ! Thickness {m}
  0.115,                                  ! Conductivity {W/m-K}
  513,                                    ! Density {kg/m3}
  1255,                                   ! Specific Heat {J/kg-K}
  0.9,                                    ! Thermal Absorptance
  0.78,                                   ! Solar Absorptance
  0.78;                                   ! Visible Absorptance

OS:Material,
  {9cdc4b59-593a-456c-913b-c655c8b53f2d}, ! Handle
  1IN Wood Decking,                       ! Name
  MediumSmooth,                           ! Roughness
  0.0254,                                 ! Thickness {m}
  0.1211,                                 ! Conductivity {W/m-K}
  593,                                    ! Density {kg/m3}
  2510,                                   ! Specific Heat {J/kg-K}
  0.9,                                    ! Thermal Absorptance
  0.78,                                   ! Solar Absorptance
  0.78;                                   ! Visible Absorptance

OS:Material,
  {13e05459-bb2c-40e3-aa2c-72096a15140d}, ! Handle
  Roof Insulation [70],                   ! Name
  MediumRough,                            ! Roughness
  0.132047,                               ! Thickness {m}
  0.049,                                  ! Conductivity {W/m-K}
  265,                                    ! Density {kg/m3}
  836.8,                                  ! Specific Heat {J/kg-K}
  0.9,                                    ! Thermal Absorptance
  0.7,                                    ! Solar Absorptance
  0.7;                                    ! Visible Absorptance

OS:Material,
  {a98ae6c3-2b95-41b8-9a35-9186458b86f8}, ! Handle
  1/2IN Gypsum,                           ! Name
  Smooth,                                 ! Roughness
  0.01271,                                ! Thickness {m}
  0.16,                                   ! Conductivity {W/m-K}
  784.9,                                  ! Density {kg/m3}
  830,                                    ! Specific Heat {J/kg-K}
  0.9,                                    ! Thermal Absorptance
  0.92,                                   ! Solar Absorptance
  0.92;                                   ! Visible Absorptance

OS:ComponentCost:LineItem,
  {5e0a2122-878f-4c08-8ece-4e234e53f7e4}, ! Handle
  90.1 Constructions Roof Attic and Other R-19.0, ! Name
  ,                                       ! Type
  Construction,                           ! Line Item Type
  90.1 Constructions Roof Attic and Other R-19.0, ! Item Name
  ,                                       ! Object End Use Key
  ,                                       ! Quantity {dimensionless}
  31.9,                                   ! Material Cost {$}
  CostPerArea;                            ! Material Cost Units

OS:ComponentData,
  {b78e8c72-c849-469b-a61f-cbf22993b266}, ! Handle
  Component Data 1,                       ! Name
  {ae3226b4-7ccd-4f1b-bec3-ef41bc78778b}, ! UUID
  {406869b8-3958-4a27-b3ad-8f781495c8e6}, ! Version UUID
  1363980997,                             ! Creation Timestamp
  1363980997,                             ! Version Timestamp
  {6ed2c4c6-8308-41f9-bc31-183e9a56d4d8}, ! Name of Object 1
  {06107c83-1663-41e3-a36c-01e44f3306f9}, ! Name of Object 2
  {9cdc4b59-593a-456c-913b-c655c8b53f2d}, ! Name of Object 3
  {13e05459-bb2c-40e3-aa2c-72096a15140d}, ! Name of Object 4
  {a98ae6c3-2b95-41b8-9a35-9186458b86f8}, ! Name of Object 5
  {5e0a2122-878f-4c08-8ece-4e234e53f7e4}; ! Name of Object 6

