
OS:Version,
  {ea0b8640-bfc4-490b-9734-f0fa1a3ee87b}, ! Handle
  0.9.3;                                  ! Version Identifier

OS:ComponentCost:LineItem,
  {d26df4cc-a12c-4b18-9dde-964e142794b0}, ! Handle
  90.1 Constructions Roof Attic and Other R-19.0, ! Name
  ,                                       ! Type
  Construction,                           ! Line Item Type
  90.1 Constructions Roof Attic and Other R-19.0, ! Item Name
  ,                                       ! Object End Use Key
  ,                                       ! Quantity {dimensionless}
  31.9,                                   ! Material Cost {$}
  CostPerArea;                            ! Material Cost Units

OS:Material,
  {acc75766-b4a3-46f3-8abf-a9f31a94ff20}, ! Handle
  1/2IN Gypsum,                           ! Name
  Smooth,                                 ! Roughness
  0.01271,                                ! Thickness {m}
  0.16,                                   ! Conductivity {W/m-K}
  784.9,                                  ! Density {kg/m3}
  830,                                    ! Specific Heat {J/kg-K}
  0.9,                                    ! Thermal Absorptance
  0.92,                                   ! Solar Absorptance
  0.92;                                   ! Visible Absorptance

OS:Material,
  {690b7ef4-b06e-4b4b-a8c1-5b356d487757}, ! Handle
  1IN Wood Decking,                       ! Name
  MediumSmooth,                           ! Roughness
  0.0254,                                 ! Thickness {m}
  0.1211,                                 ! Conductivity {W/m-K}
  593,                                    ! Density {kg/m3}
  2510,                                   ! Specific Heat {J/kg-K}
  0.9,                                    ! Thermal Absorptance
  0.78,                                   ! Solar Absorptance
  0.78;                                   ! Visible Absorptance

OS:Material,
  {d2dbabb7-f3ee-445f-a9dc-413f63126ac2}, ! Handle
  Roof Insulation [70],                   ! Name
  MediumRough,                            ! Roughness
  0.132047,                               ! Thickness {m}
  0.049,                                  ! Conductivity {W/m-K}
  265,                                    ! Density {kg/m3}
  836.8,                                  ! Specific Heat {J/kg-K}
  0.9,                                    ! Thermal Absorptance
  0.7,                                    ! Solar Absorptance
  0.7;                                    ! Visible Absorptance

OS:Construction,
  {2ff5766a-89ba-47b6-853c-057f19e1ea9b}, ! Handle
  90.1 Constructions Roof Attic and Other R-19.0, ! Name
  ,                                       ! Surface Rendering Name
  {91492559-28d0-4140-a602-a7b3daff50ca}, ! Layer 1
  {690b7ef4-b06e-4b4b-a8c1-5b356d487757}, ! Layer 2
  {d2dbabb7-f3ee-445f-a9dc-413f63126ac2}, ! Layer 3
  {acc75766-b4a3-46f3-8abf-a9f31a94ff20}; ! Layer 4

OS:Material,
  {91492559-28d0-4140-a602-a7b3daff50ca}, ! Handle
  Wood Shingles,                          ! Name
  VeryRough,                              ! Roughness
  0.0178,                                 ! Thickness {m}
  0.115,                                  ! Conductivity {W/m-K}
  513,                                    ! Density {kg/m3}
  1255,                                   ! Specific Heat {J/kg-K}
  0.9,                                    ! Thermal Absorptance
  0.78,                                   ! Solar Absorptance
  0.78;                                   ! Visible Absorptance

