
OS:Version,
  {af15e438-4084-4949-a55b-371cfe0a2615}, ! Handle
  0.9.3;                                  ! Version Identifier

OS:Construction,
  {3eb1eb0b-c23a-4c88-b079-d592d7c4814e}, ! Handle
  90.1-2001 Res B22 Skylight without Curb, ! Name
  ,                                       ! Surface Rendering Name
  {9575c12c-c299-4185-b3ea-9df61b6535a1}; ! Layer 1

OS:WindowMaterial:Glazing,
  {9575c12c-c299-4185-b3ea-9df61b6535a1}, ! Handle
  Theoretical Glass [109],                ! Name
  SpectralAverage,                        ! Optical Data Type
  ,                                       ! Window Glass Spectral Data Set Name
  0.003,                                  ! Thickness {m}
  0.622665,                               ! Solar Transmittance at Normal Incidence
  0.327335,                               ! Front Side Solar Reflectance at Normal Incidence
  0.327335,                               ! Back Side Solar Reflectance at Normal Incidence
  0.706654,                               ! Visible Transmittance at Normal Incidence
  0.243346,                               ! Front Side Visible Reflectance at Normal Incidence
  0.243346,                               ! Back Side Visible Reflectance at Normal Incidence
  0,                                      ! Infrared Transmittance at Normal Incidence
  0.9,                                    ! Front Side Infrared Hemispherical Emissivity
  0.9,                                    ! Back Side Infrared Hemispherical Emissivity
  0.0324872;                              ! Conductivity {W/m-K}

OS:ComponentCost:LineItem,
  {0d66664c-242a-4c0b-b04d-739c1f41da6c}, ! Handle
  90.1-2001 Res B22 Skylight without Curb, ! Name
  ,                                       ! Type
  Construction,                           ! Line Item Type
  90.1-2001 Res B22 Skylight without Curb, ! Item Name
  ,                                       ! Object End Use Key
  ,                                       ! Quantity {dimensionless}
  508.362,                                ! Material Cost {$}
  CostPerArea;                            ! Material Cost Units

OS:ComponentData,
  {2ccf7fd6-3bee-4fdf-8558-0e4e4b928625}, ! Handle
  Component Data 1,                       ! Name
  {98f0bd6b-fe12-402c-8e9c-9e843a34b23a}, ! UUID
  {15a82137-6548-4d85-bc86-a130d7479406}, ! Version UUID
  1363981594,                             ! Creation Timestamp
  1363981594,                             ! Version Timestamp
  {3eb1eb0b-c23a-4c88-b079-d592d7c4814e}, ! Name of Object 1
  {9575c12c-c299-4185-b3ea-9df61b6535a1}, ! Name of Object 2
  {0d66664c-242a-4c0b-b04d-739c1f41da6c}; ! Name of Object 3

