
OS:Version,
  {de1c8743-4aba-4dc4-87d8-a8c8d83df1fd}, ! Handle
  0.9.3;                                  ! Version Identifier

OS:Material,
  {78daa4c0-d719-4cbc-8bbb-94bd4945f820}, ! Handle
  MAT-CC05 4 HW CONCRETE,                 ! Name
  Rough,                                  ! Roughness
  0.1016,                                 ! Thickness {m}
  1.311,                                  ! Conductivity {W/m-K}
  2240,                                   ! Density {kg/m3}
  836.8,                                  ! Specific Heat {J/kg-K}
  0.9,                                    ! Thermal Absorptance
  0.7,                                    ! Solar Absorptance
  0.7;                                    ! Visible Absorptance

OS:ComponentCost:LineItem,
  {6bb5c04e-aef7-4496-a763-7cc8b7d982d7}, ! Handle
  90.1-2001 Res B9 Ext Slab Unheated - 4in Slab without Carpet, ! Name
  ,                                       ! Type
  Construction,                           ! Line Item Type
  90.1-2001 Res B9 Ext Slab Unheated - 4in Slab without Carpet, ! Item Name
  ,                                       ! Object End Use Key
  ,                                       ! Quantity {dimensionless}
  45.52,                                  ! Material Cost {$}
  CostPerArea;                            ! Material Cost Units

OS:Construction,
  {36245cdf-ea70-450a-bdb3-6d7b689b1130}, ! Handle
  90.1-2001 Res B9 Ext Slab Unheated - 4in Slab without Carpet, ! Name
  ,                                       ! Surface Rendering Name
  {78daa4c0-d719-4cbc-8bbb-94bd4945f820}; ! Layer 1

