
OS:Version,
  {ade08c43-3395-414d-ac78-8d038d2cac05}, ! Handle
  0.9.3;                                  ! Version Identifier

OS:Construction,
  {e54e5578-9ac0-4ba1-a124-1cfd92126620}, ! Handle
  90.1 Windows Window Fixed 2560 Vnl-ClrSpe-Std-ClrSpe, ! Name
  ,                                       ! Surface Rendering Name
  {33d502bf-fb24-4007-90ee-8dfdd75cea5e}; ! Layer 1

OS:WindowMaterial:Glazing,
  {33d502bf-fb24-4007-90ee-8dfdd75cea5e}, ! Handle
  Theoretical Glass [604],                ! Name
  SpectralAverage,                        ! Optical Data Type
  ,                                       ! Window Glass Spectral Data Set Name
  0.003,                                  ! Thickness {m}
  0.425891,                               ! Solar Transmittance at Normal Incidence
  0.524109,                               ! Front Side Solar Reflectance at Normal Incidence
  0.524109,                               ! Back Side Solar Reflectance at Normal Incidence
  0.579352,                               ! Visible Transmittance at Normal Incidence
  0.370648,                               ! Front Side Visible Reflectance at Normal Incidence
  0.370648,                               ! Back Side Visible Reflectance at Normal Incidence
  0,                                      ! Infrared Transmittance at Normal Incidence
  0.9,                                    ! Front Side Infrared Hemispherical Emissivity
  0.9,                                    ! Back Side Infrared Hemispherical Emissivity
  0.00919029;                             ! Conductivity {W/m-K}

OS:ComponentCost:LineItem,
  {eb58ec1a-3666-4983-8e8e-f8173ead6b9e}, ! Handle
  90.1 Windows Window Fixed 2560 Vnl-ClrSpe-Std-ClrSpe, ! Name
  ,                                       ! Type
  Construction,                           ! Line Item Type
  90.1 Windows Window Fixed 2560 Vnl-ClrSpe-Std-ClrSpe, ! Item Name
  ,                                       ! Object End Use Key
  ,                                       ! Quantity {dimensionless}
  0,                                      ! Material Cost {$}
  CostPerArea;                            ! Material Cost Units

OS:ComponentData,
  {65da1a5b-222a-4d65-84ad-f5c2ded493a0}, ! Handle
  Component Data 1,                       ! Name
  {751385b3-3910-4fc7-ba80-e402b9d56ecc}, ! UUID
  {489a5d4d-cb53-4ef4-a16d-c423324fe62f}, ! Version UUID
  1363981032,                             ! Creation Timestamp
  1363981032,                             ! Version Timestamp
  {e54e5578-9ac0-4ba1-a124-1cfd92126620}, ! Name of Object 1
  {33d502bf-fb24-4007-90ee-8dfdd75cea5e}, ! Name of Object 2
  {eb58ec1a-3666-4983-8e8e-f8173ead6b9e}; ! Name of Object 3

