
OS:Version,
  {9efe4224-7086-4fbe-95f6-7116624d5006}, ! Handle
  0.9.3;                                  ! Version Identifier

OS:ComponentCost:LineItem,
  {4c26e6cf-8062-425e-97f8-c590decfbf27}, ! Handle
  90.1 Windows Window Fixed 2560 Vnl-ClrSpe-Std-ClrSpe, ! Name
  ,                                       ! Type
  Construction,                           ! Line Item Type
  90.1 Windows Window Fixed 2560 Vnl-ClrSpe-Std-ClrSpe, ! Item Name
  ,                                       ! Object End Use Key
  ,                                       ! Quantity {dimensionless}
  0,                                      ! Material Cost {$}
  CostPerArea;                            ! Material Cost Units

OS:Construction,
  {a830aaf6-e5b6-4ec7-8d61-2331f12752a3}, ! Handle
  90.1 Windows Window Fixed 2560 Vnl-ClrSpe-Std-ClrSpe, ! Name
  ,                                       ! Surface Rendering Name
  {bc67d486-c8e5-4f3d-84a5-35ea17b9728f}; ! Layer 1

OS:WindowMaterial:Glazing,
  {bc67d486-c8e5-4f3d-84a5-35ea17b9728f}, ! Handle
  Theoretical Glass [604],                ! Name
  SpectralAverage,                        ! Optical Data Type
  ,                                       ! Window Glass Spectral Data Set Name
  0.003,                                  ! Thickness {m}
  0.425891,                               ! Solar Transmittance at Normal Incidence
  0.524109,                               ! Front Side Solar Reflectance at Normal Incidence
  0.524109,                               ! Back Side Solar Reflectance at Normal Incidence
  0.579352,                               ! Visible Transmittance at Normal Incidence
  0.370648,                               ! Front Side Visible Reflectance at Normal Incidence
  0.370648,                               ! Back Side Visible Reflectance at Normal Incidence
  0,                                      ! Infrared Transmittance at Normal Incidence
  0.9,                                    ! Front Side Infrared Hemispherical Emissivity
  0.9,                                    ! Back Side Infrared Hemispherical Emissivity
  0.00919029;                             ! Conductivity {W/m-K}

