
OS:Version,
  {199956d6-01f5-4242-8b66-3820710e1487}, ! Handle
  0.9.3;                                  ! Version Identifier

OS:Construction,
  {98f5f8b0-f662-45cf-9ef0-7f00f038c5a9}, ! Handle
  90.1 Windows Window Fixed 2519 Vnl-HptSbe-Std-Clr, ! Name
  ,                                       ! Surface Rendering Name
  {1779aa24-c4ff-4a48-90e5-a0cee9f3ba34}; ! Layer 1

OS:WindowMaterial:Glazing,
  {1779aa24-c4ff-4a48-90e5-a0cee9f3ba34}, ! Handle
  Theoretical Glass [520],                ! Name
  SpectralAverage,                        ! Optical Data Type
  ,                                       ! Window Glass Spectral Data Set Name
  0.003,                                  ! Thickness {m}
  0.226352,                               ! Solar Transmittance at Normal Incidence
  0.723648,                               ! Front Side Solar Reflectance at Normal Incidence
  0.723648,                               ! Back Side Solar Reflectance at Normal Incidence
  0.320998,                               ! Visible Transmittance at Normal Incidence
  0.629002,                               ! Front Side Visible Reflectance at Normal Incidence
  0.629002,                               ! Back Side Visible Reflectance at Normal Incidence
  0,                                      ! Infrared Transmittance at Normal Incidence
  0.9,                                    ! Front Side Infrared Hemispherical Emissivity
  0.9,                                    ! Back Side Infrared Hemispherical Emissivity
  0.00956575;                             ! Conductivity {W/m-K}

OS:ComponentCost:LineItem,
  {4ad0a5b3-341d-42a8-bb56-efe6ff6c925a}, ! Handle
  90.1 Windows Window Fixed 2519 Vnl-HptSbe-Std-Clr, ! Name
  ,                                       ! Type
  Construction,                           ! Line Item Type
  90.1 Windows Window Fixed 2519 Vnl-HptSbe-Std-Clr, ! Item Name
  ,                                       ! Object End Use Key
  ,                                       ! Quantity {dimensionless}
  0,                                      ! Material Cost {$}
  CostPerArea;                            ! Material Cost Units

OS:ComponentData,
  {b0132a28-5433-431b-a8e6-6c08d0b738ac}, ! Handle
  Component Data 1,                       ! Name
  {5c053962-e9bc-46e4-be08-80d0784c0257}, ! UUID
  {3c276af2-4bec-4f89-b91e-cb3da849010d}, ! Version UUID
  1363981026,                             ! Creation Timestamp
  1363981026,                             ! Version Timestamp
  {98f5f8b0-f662-45cf-9ef0-7f00f038c5a9}, ! Name of Object 1
  {1779aa24-c4ff-4a48-90e5-a0cee9f3ba34}, ! Name of Object 2
  {4ad0a5b3-341d-42a8-bb56-efe6ff6c925a}; ! Name of Object 3

