
OS:Version,
  {eeee35aa-8dd1-432a-847c-b15073d5c62b}, ! Handle
  0.9.3;                                  ! Version Identifier

OS:Construction,
  {165b6645-9c74-45e7-8fb7-64ec9d96aa2f}, ! Handle
  90.1 Windows Window Fixed 2519 Vnl-HptSbe-Std-Clr, ! Name
  ,                                       ! Surface Rendering Name
  {66b041a2-53cf-4781-9548-336152585d08}; ! Layer 1

OS:WindowMaterial:Glazing,
  {66b041a2-53cf-4781-9548-336152585d08}, ! Handle
  Theoretical Glass [520],                ! Name
  SpectralAverage,                        ! Optical Data Type
  ,                                       ! Window Glass Spectral Data Set Name
  0.003,                                  ! Thickness {m}
  0.226352,                               ! Solar Transmittance at Normal Incidence
  0.723648,                               ! Front Side Solar Reflectance at Normal Incidence
  0.723648,                               ! Back Side Solar Reflectance at Normal Incidence
  0.320998,                               ! Visible Transmittance at Normal Incidence
  0.629002,                               ! Front Side Visible Reflectance at Normal Incidence
  0.629002,                               ! Back Side Visible Reflectance at Normal Incidence
  0,                                      ! Infrared Transmittance at Normal Incidence
  0.9,                                    ! Front Side Infrared Hemispherical Emissivity
  0.9,                                    ! Back Side Infrared Hemispherical Emissivity
  0.00956575;                             ! Conductivity {W/m-K}

OS:ComponentCost:LineItem,
  {872cb7ca-832e-418f-be6b-549f1411127f}, ! Handle
  90.1 Windows Window Fixed 2519 Vnl-HptSbe-Std-Clr, ! Name
  ,                                       ! Type
  Construction,                           ! Line Item Type
  90.1 Windows Window Fixed 2519 Vnl-HptSbe-Std-Clr, ! Item Name
  ,                                       ! Object End Use Key
  ,                                       ! Quantity {dimensionless}
  0,                                      ! Material Cost {$}
  CostPerArea;                            ! Material Cost Units

