
OS:Version,
  {9f6b5423-e239-41db-a127-522b77f70613}, ! Handle
  0.9.3;                                  ! Version Identifier

OS:WindowMaterial:Glazing,
  {1849cd30-a835-4e7b-b2ef-893b2f49ef64}, ! Handle
  Theoretical Glass [251],                ! Name
  SpectralAverage,                        ! Optical Data Type
  ,                                       ! Window Glass Spectral Data Set Name
  0.003,                                  ! Thickness {m}
  0.595677,                               ! Solar Transmittance at Normal Incidence
  0.354323,                               ! Front Side Solar Reflectance at Normal Incidence
  0.354323,                               ! Back Side Solar Reflectance at Normal Incidence
  0.774999,                               ! Visible Transmittance at Normal Incidence
  0.175001,                               ! Front Side Visible Reflectance at Normal Incidence
  0.175001,                               ! Back Side Visible Reflectance at Normal Incidence
  0,                                      ! Infrared Transmittance at Normal Incidence
  0.999,                                  ! Front Side Infrared Hemispherical Emissivity
  0.999,                                  ! Back Side Infrared Hemispherical Emissivity
  72.7123;                                ! Conductivity {W/m-K}

OS:ComponentCost:LineItem,
  {59c45391-2b88-477f-9c6e-2d4545b9f5f2}, ! Handle
  AEDG K12 Nonres 3C Skylight without Curb, ! Name
  ,                                       ! Type
  Construction,                           ! Line Item Type
  AEDG K12 Nonres 3C Skylight without Curb, ! Item Name
  ,                                       ! Object End Use Key
  ,                                       ! Quantity {dimensionless}
  493.621,                                ! Material Cost {$}
  CostPerArea;                            ! Material Cost Units

OS:Construction,
  {d8a134d6-c050-485d-92b6-19ffd44633cc}, ! Handle
  AEDG K12 Nonres 3C Skylight without Curb, ! Name
  ,                                       ! Surface Rendering Name
  {1849cd30-a835-4e7b-b2ef-893b2f49ef64}; ! Layer 1

