
OS:Version,
  {04c6a066-147b-4c8d-8fcd-40f026e21d70}, ! Handle
  0.9.3;                                  ! Version Identifier

OS:Construction,
  {7dbbc6df-9d8d-468f-bcb0-5127cfba33f9}, ! Handle
  AEDG K12 Nonres 3C Skylight without Curb, ! Name
  ,                                       ! Surface Rendering Name
  {a7314d01-12fd-464d-84ae-5f0134f5c6df}; ! Layer 1

OS:WindowMaterial:Glazing,
  {a7314d01-12fd-464d-84ae-5f0134f5c6df}, ! Handle
  Theoretical Glass [251],                ! Name
  SpectralAverage,                        ! Optical Data Type
  ,                                       ! Window Glass Spectral Data Set Name
  0.003,                                  ! Thickness {m}
  0.595677,                               ! Solar Transmittance at Normal Incidence
  0.354323,                               ! Front Side Solar Reflectance at Normal Incidence
  0.354323,                               ! Back Side Solar Reflectance at Normal Incidence
  0.774999,                               ! Visible Transmittance at Normal Incidence
  0.175001,                               ! Front Side Visible Reflectance at Normal Incidence
  0.175001,                               ! Back Side Visible Reflectance at Normal Incidence
  0,                                      ! Infrared Transmittance at Normal Incidence
  0.999,                                  ! Front Side Infrared Hemispherical Emissivity
  0.999,                                  ! Back Side Infrared Hemispherical Emissivity
  72.7123;                                ! Conductivity {W/m-K}

OS:ComponentCost:LineItem,
  {8ebb50c8-4687-4e6d-ab36-10840252c92c}, ! Handle
  AEDG K12 Nonres 3C Skylight without Curb, ! Name
  ,                                       ! Type
  Construction,                           ! Line Item Type
  AEDG K12 Nonres 3C Skylight without Curb, ! Item Name
  ,                                       ! Object End Use Key
  ,                                       ! Quantity {dimensionless}
  493.621,                                ! Material Cost {$}
  CostPerArea;                            ! Material Cost Units

OS:ComponentData,
  {e20f767b-87b9-4aa2-b952-447bc7858cc0}, ! Handle
  Component Data 1,                       ! Name
  {bffd3ad1-4819-4f53-b8f2-8102108046cd}, ! UUID
  {b2455bc2-5dc9-49e4-8b19-fbbd6f4c0be9}, ! Version UUID
  1363981892,                             ! Creation Timestamp
  1363981892,                             ! Version Timestamp
  {7dbbc6df-9d8d-468f-bcb0-5127cfba33f9}, ! Name of Object 1
  {a7314d01-12fd-464d-84ae-5f0134f5c6df}, ! Name of Object 2
  {8ebb50c8-4687-4e6d-ab36-10840252c92c}; ! Name of Object 3

