
OS:Version,
  {74b53742-8f4b-4e46-bf6c-d9046100ff77}, ! Handle
  0.9.3;                                  ! Version Identifier

OS:Construction,
  {9e9752f3-eda2-4a41-8e61-13a688e08e51}, ! Handle
  90.1-1999 Nonres B14 Ext Wall Metal Building, ! Name
  ,                                       ! Surface Rendering Name
  {df577768-1cd8-4cc6-a855-b52f44406d81}, ! Layer 1
  {85ab72b8-775c-442a-9ae4-fc85a09aa1dd}, ! Layer 2
  {9249fd94-810e-4e0e-adb3-9b59bef67259}; ! Layer 3

OS:Material,
  {df577768-1cd8-4cc6-a855-b52f44406d81}, ! Handle
  Metal Siding,                           ! Name
  Smooth,                                 ! Roughness
  0.0015,                                 ! Thickness {m}
  44.96,                                  ! Conductivity {W/m-K}
  7688.86,                                ! Density {kg/m3}
  410,                                    ! Specific Heat {J/kg-K}
  0.9,                                    ! Thermal Absorptance
  0.2,                                    ! Solar Absorptance
  0.2;                                    ! Visible Absorptance

OS:Material,
  {85ab72b8-775c-442a-9ae4-fc85a09aa1dd}, ! Handle
  Wall Insulation,                        ! Name
  MediumRough,                            ! Roughness
  0.0598725,                              ! Thickness {m}
  0.045,                                  ! Conductivity {W/m-K}
  265,                                    ! Density {kg/m3}
  836.8,                                  ! Specific Heat {J/kg-K}
  0.9,                                    ! Thermal Absorptance
  0.7,                                    ! Solar Absorptance
  0.7;                                    ! Visible Absorptance

OS:Material,
  {9249fd94-810e-4e0e-adb3-9b59bef67259}, ! Handle
  1/2IN Gypsum,                           ! Name
  Smooth,                                 ! Roughness
  0.01271,                                ! Thickness {m}
  0.16,                                   ! Conductivity {W/m-K}
  784.9,                                  ! Density {kg/m3}
  830,                                    ! Specific Heat {J/kg-K}
  0.9,                                    ! Thermal Absorptance
  0.92,                                   ! Solar Absorptance
  0.92;                                   ! Visible Absorptance

OS:ComponentCost:LineItem,
  {8d1acbfb-a251-4739-85ac-032ea4d716dc}, ! Handle
  90.1-1999 Nonres B14 Ext Wall Metal Building, ! Name
  ,                                       ! Type
  Construction,                           ! Line Item Type
  90.1-1999 Nonres B14 Ext Wall Metal Building, ! Item Name
  ,                                       ! Object End Use Key
  ,                                       ! Quantity {dimensionless}
  98.78,                                  ! Material Cost {$}
  CostPerArea;                            ! Material Cost Units

