
OS:Version,
  {0d10272b-d934-4b2b-b70f-8c08fa64dd06}, ! Handle
  0.9.3;                                  ! Version Identifier

OS:Construction,
  {dbd9a7c2-1dc1-4bf5-a5d3-e2ac74d45aab}, ! Handle
  90.1 Constructions Ext Wall Steel-Framed R-13.0 + R-34.4 ci, ! Name
  ,                                       ! Surface Rendering Name
  {2a1675b2-15c5-4e90-9a6a-8573eb31e455}, ! Layer 1
  {57a0aa99-c206-42db-8862-3ff5d0035b20}, ! Layer 2
  {239f7c29-8a56-41ab-879f-92f986388856}; ! Layer 3

OS:Material:NoMass,
  {2a1675b2-15c5-4e90-9a6a-8573eb31e455}, ! Handle
  MAT-SHEATH,                             ! Name
  Rough,                                  ! Roughness
  0.36256,                                ! Thermal Resistance {m2-K/W}
  0.9,                                    ! Thermal Absorptance
  0.7,                                    ! Solar Absorptance
  0.7;                                    ! Visible Absorptance

OS:Material,
  {57a0aa99-c206-42db-8862-3ff5d0035b20}, ! Handle
  Wall Insulation [123],                  ! Name
  MediumRough,                            ! Roughness
  0.309011,                               ! Thickness {m}
  0.045,                                  ! Conductivity {W/m-K}
  265,                                    ! Density {kg/m3}
  836.8,                                  ! Specific Heat {J/kg-K}
  0.9,                                    ! Thermal Absorptance
  0.7,                                    ! Solar Absorptance
  0.7;                                    ! Visible Absorptance

OS:Material,
  {239f7c29-8a56-41ab-879f-92f986388856}, ! Handle
  1/2IN Gypsum,                           ! Name
  Smooth,                                 ! Roughness
  0.01271,                                ! Thickness {m}
  0.16,                                   ! Conductivity {W/m-K}
  784.9,                                  ! Density {kg/m3}
  830,                                    ! Specific Heat {J/kg-K}
  0.9,                                    ! Thermal Absorptance
  0.92,                                   ! Solar Absorptance
  0.92;                                   ! Visible Absorptance

OS:ComponentCost:LineItem,
  {2887bf90-da83-4c73-b3a9-8b4e5fcc93f2}, ! Handle
  90.1 Constructions Ext Wall Steel-Framed R-13.0 + R-34.4 ci, ! Name
  ,                                       ! Type
  Construction,                           ! Line Item Type
  90.1 Constructions Ext Wall Steel-Framed R-13.0 + R-34.4 ci, ! Item Name
  ,                                       ! Object End Use Key
  ,                                       ! Quantity {dimensionless}
  114.797,                                ! Material Cost {$}
  CostPerArea;                            ! Material Cost Units

OS:ComponentData,
  {f1340c45-ca63-4305-b1b1-b21b9b38d5ae}, ! Handle
  Component Data 1,                       ! Name
  {9f748e8a-527d-44f2-9474-475be7ed77a1}, ! UUID
  {e0255508-b9b5-4ce7-adc6-66412a8f6522}, ! Version UUID
  1363980996,                             ! Creation Timestamp
  1363980996,                             ! Version Timestamp
  {dbd9a7c2-1dc1-4bf5-a5d3-e2ac74d45aab}, ! Name of Object 1
  {2a1675b2-15c5-4e90-9a6a-8573eb31e455}, ! Name of Object 2
  {57a0aa99-c206-42db-8862-3ff5d0035b20}, ! Name of Object 3
  {239f7c29-8a56-41ab-879f-92f986388856}, ! Name of Object 4
  {2887bf90-da83-4c73-b3a9-8b4e5fcc93f2}; ! Name of Object 5

