
OS:Version,
  {910228d0-c401-4b6a-900b-8687ac377187}, ! Handle
  0.9.3;                                  ! Version Identifier

OS:ComponentCost:LineItem,
  {f2967eb4-caa6-46a1-bfbf-9606e5f5b0a3}, ! Handle
  90.1-2004 Res 3A Ext Wall Mass,         ! Name
  ,                                       ! Type
  Construction,                           ! Line Item Type
  90.1-2004 Res 3A Ext Wall Mass,         ! Item Name
  ,                                       ! Object End Use Key
  ,                                       ! Quantity {dimensionless}
  61.418,                                 ! Material Cost {$}
  CostPerArea;                            ! Material Cost Units

OS:Material,
  {547e9a81-d118-4333-a190-c0c698a56db9}, ! Handle
  1/2IN Gypsum,                           ! Name
  Smooth,                                 ! Roughness
  0.01271,                                ! Thickness {m}
  0.16,                                   ! Conductivity {W/m-K}
  784.9,                                  ! Density {kg/m3}
  830,                                    ! Specific Heat {J/kg-K}
  0.9,                                    ! Thermal Absorptance
  0.92,                                   ! Solar Absorptance
  0.92;                                   ! Visible Absorptance

OS:Construction,
  {c131a561-a7c2-43f9-9c28-8dbf26a1bb15}, ! Handle
  90.1-2004 Res 3A Ext Wall Mass,         ! Name
  ,                                       ! Surface Rendering Name
  {70358897-d33b-42c0-9f61-53d70ce3c494}, ! Layer 1
  {9e443cdf-5df5-4545-9e31-9c0ff4c5b28b}, ! Layer 2
  {4d478c82-4941-475a-b2a1-c81da1ae3755}, ! Layer 3
  {547e9a81-d118-4333-a190-c0c698a56db9}; ! Layer 4

OS:Material,
  {70358897-d33b-42c0-9f61-53d70ce3c494}, ! Handle
  1IN Stucco,                             ! Name
  Smooth,                                 ! Roughness
  0.0253,                                 ! Thickness {m}
  0.6918,                                 ! Conductivity {W/m-K}
  1858,                                   ! Density {kg/m3}
  837,                                    ! Specific Heat {J/kg-K}
  0.9,                                    ! Thermal Absorptance
  0.92,                                   ! Solar Absorptance
  0.92;                                   ! Visible Absorptance

OS:Material,
  {9e443cdf-5df5-4545-9e31-9c0ff4c5b28b}, ! Handle
  8IN Concrete HW,                        ! Name
  MediumRough,                            ! Roughness
  0.2033,                                 ! Thickness {m}
  1.7296,                                 ! Conductivity {W/m-K}
  2243,                                   ! Density {kg/m3}
  837,                                    ! Specific Heat {J/kg-K}
  0.9,                                    ! Thermal Absorptance
  0.65,                                   ! Solar Absorptance
  0.65;                                   ! Visible Absorptance

OS:Material,
  {4d478c82-4941-475a-b2a1-c81da1ae3755}, ! Handle
  Wall Insulation [5],                    ! Name
  MediumRough,                            ! Roughness
  0.0453274,                              ! Thickness {m}
  0.0432,                                 ! Conductivity {W/m-K}
  91,                                     ! Density {kg/m3}
  837,                                    ! Specific Heat {J/kg-K}
  0.9,                                    ! Thermal Absorptance
  0.5,                                    ! Solar Absorptance
  0.5;                                    ! Visible Absorptance

