
OS:Version,
  {4dcf5cb5-a267-4d8d-9248-5d71a558b3ef}, ! Handle
  0.9.3;                                  ! Version Identifier

OS:Material,
  {8cdd705a-c893-427d-8fe8-2caf9b913161}, ! Handle
  Roof Insulation [5],                    ! Name
  MediumRough,                            ! Roughness
  0.286906,                               ! Thickness {m}
  0.049,                                  ! Conductivity {W/m-K}
  265,                                    ! Density {kg/m3}
  836.8,                                  ! Specific Heat {J/kg-K}
  0.9,                                    ! Thermal Absorptance
  0.7,                                    ! Solar Absorptance
  0.7;                                    ! Visible Absorptance

OS:Material,
  {710a2bf5-3bf8-43c4-b9d7-31b6f47ebce3}, ! Handle
  1IN Wood Decking,                       ! Name
  MediumSmooth,                           ! Roughness
  0.0254,                                 ! Thickness {m}
  0.1211,                                 ! Conductivity {W/m-K}
  593,                                    ! Density {kg/m3}
  2510,                                   ! Specific Heat {J/kg-K}
  0.9,                                    ! Thermal Absorptance
  0.78,                                   ! Solar Absorptance
  0.78;                                   ! Visible Absorptance

OS:Construction,
  {dd4d91bf-c301-4d8a-af51-b8d89349509e}, ! Handle
  90.1-2001 Nonres B16 Roof Attic and Other, ! Name
  ,                                       ! Surface Rendering Name
  {3d67603b-f5ee-42a4-b624-e9d1ecf10da4}, ! Layer 1
  {710a2bf5-3bf8-43c4-b9d7-31b6f47ebce3}, ! Layer 2
  {8cdd705a-c893-427d-8fe8-2caf9b913161}, ! Layer 3
  {ef585cb0-02ad-48df-b20f-c20f8ba5b091}; ! Layer 4

OS:Material,
  {3d67603b-f5ee-42a4-b624-e9d1ecf10da4}, ! Handle
  Wood Shingles,                          ! Name
  VeryRough,                              ! Roughness
  0.0178,                                 ! Thickness {m}
  0.115,                                  ! Conductivity {W/m-K}
  513,                                    ! Density {kg/m3}
  1255,                                   ! Specific Heat {J/kg-K}
  0.9,                                    ! Thermal Absorptance
  0.78,                                   ! Solar Absorptance
  0.78;                                   ! Visible Absorptance

OS:Material,
  {ef585cb0-02ad-48df-b20f-c20f8ba5b091}, ! Handle
  1/2IN Gypsum,                           ! Name
  Smooth,                                 ! Roughness
  0.01271,                                ! Thickness {m}
  0.16,                                   ! Conductivity {W/m-K}
  784.9,                                  ! Density {kg/m3}
  830,                                    ! Specific Heat {J/kg-K}
  0.9,                                    ! Thermal Absorptance
  0.92,                                   ! Solar Absorptance
  0.92;                                   ! Visible Absorptance

OS:ComponentCost:LineItem,
  {cb50cbdf-9b43-463d-b9dd-de4eb86dcbb0}, ! Handle
  90.1-2001 Nonres B16 Roof Attic and Other, ! Name
  ,                                       ! Type
  Construction,                           ! Line Item Type
  90.1-2001 Nonres B16 Roof Attic and Other, ! Item Name
  ,                                       ! Object End Use Key
  ,                                       ! Quantity {dimensionless}
  34.757,                                 ! Material Cost {$}
  CostPerArea;                            ! Material Cost Units

