
OS:Version,
  {18ed529f-540f-4b51-97c9-253982067ebf}, ! Handle
  0.9.3;                                  ! Version Identifier

OS:WindowMaterial:Glazing,
  {f68aa4dd-90c9-4fab-92b8-af0229cd637b}, ! Handle
  Theoretical Glass [679],                ! Name
  SpectralAverage,                        ! Optical Data Type
  ,                                       ! Window Glass Spectral Data Set Name
  0.003,                                  ! Thickness {m}
  0.387604,                               ! Solar Transmittance at Normal Incidence
  0.562396,                               ! Front Side Solar Reflectance at Normal Incidence
  0.562396,                               ! Back Side Solar Reflectance at Normal Incidence
  0.400004,                               ! Visible Transmittance at Normal Incidence
  0.549996,                               ! Front Side Visible Reflectance at Normal Incidence
  0.549996,                               ! Back Side Visible Reflectance at Normal Incidence
  0,                                      ! Infrared Transmittance at Normal Incidence
  0.91,                                   ! Front Side Infrared Hemispherical Emissivity
  0.91,                                   ! Back Side Infrared Hemispherical Emissivity
  0.387053;                               ! Conductivity {W/m-K}

OS:Construction,
  {71c0ac9f-ded5-4217-8ae8-396d7c47ab88}, ! Handle
  Title 24-2008 Nonres 4 Skylight Glass Skylight with Curb, ! Name
  ,                                       ! Surface Rendering Name
  {f68aa4dd-90c9-4fab-92b8-af0229cd637b}; ! Layer 1

OS:ComponentCost:LineItem,
  {728870c1-3476-44c4-9d3f-ce3775cfa729}, ! Handle
  Title 24-2008 Nonres 4 Skylight Glass Skylight with Curb, ! Name
  ,                                       ! Type
  Construction,                           ! Line Item Type
  Title 24-2008 Nonres 4 Skylight Glass Skylight with Curb, ! Item Name
  ,                                       ! Object End Use Key
  ,                                       ! Quantity {dimensionless}
  501.798,                                ! Material Cost {$}
  CostPerArea;                            ! Material Cost Units

