
OS:Version,
  {055a55ed-7ca2-435a-907a-724f6f71a51e}, ! Handle
  0.9.3;                                  ! Version Identifier

OS:Construction,
  {abaee2b7-7eaf-4331-b089-8dcf898af0ef}, ! Handle
  90.1-1999 Res B2 Ext Wall Metal Building, ! Name
  ,                                       ! Surface Rendering Name
  {06385e91-9ee0-4409-bd2f-0ce075766d9b}, ! Layer 1
  {37963d5f-7c9e-4541-8c27-5157f30521fb}, ! Layer 2
  {c65d01a4-b208-4d3d-b1bb-b1c5ec194748}; ! Layer 3

OS:Material,
  {06385e91-9ee0-4409-bd2f-0ce075766d9b}, ! Handle
  Metal Siding,                           ! Name
  Smooth,                                 ! Roughness
  0.0015,                                 ! Thickness {m}
  44.96,                                  ! Conductivity {W/m-K}
  7688.86,                                ! Density {kg/m3}
  410,                                    ! Specific Heat {J/kg-K}
  0.9,                                    ! Thermal Absorptance
  0.2,                                    ! Solar Absorptance
  0.2;                                    ! Visible Absorptance

OS:Material,
  {37963d5f-7c9e-4541-8c27-5157f30521fb}, ! Handle
  Wall Insulation,                        ! Name
  MediumRough,                            ! Roughness
  0.0598725,                              ! Thickness {m}
  0.045,                                  ! Conductivity {W/m-K}
  265,                                    ! Density {kg/m3}
  836.8,                                  ! Specific Heat {J/kg-K}
  0.9,                                    ! Thermal Absorptance
  0.7,                                    ! Solar Absorptance
  0.7;                                    ! Visible Absorptance

OS:Material,
  {c65d01a4-b208-4d3d-b1bb-b1c5ec194748}, ! Handle
  1/2IN Gypsum,                           ! Name
  Smooth,                                 ! Roughness
  0.01271,                                ! Thickness {m}
  0.16,                                   ! Conductivity {W/m-K}
  784.9,                                  ! Density {kg/m3}
  830,                                    ! Specific Heat {J/kg-K}
  0.9,                                    ! Thermal Absorptance
  0.92,                                   ! Solar Absorptance
  0.92;                                   ! Visible Absorptance

OS:ComponentCost:LineItem,
  {9d71d809-27a7-434f-bdb0-4382804b22c8}, ! Handle
  90.1-1999 Res B2 Ext Wall Metal Building, ! Name
  ,                                       ! Type
  Construction,                           ! Line Item Type
  90.1-1999 Res B2 Ext Wall Metal Building, ! Item Name
  ,                                       ! Object End Use Key
  ,                                       ! Quantity {dimensionless}
  98.78,                                  ! Material Cost {$}
  CostPerArea;                            ! Material Cost Units

OS:ComponentData,
  {0a977d0c-9066-413d-868b-c05a6bb558d5}, ! Handle
  Component Data 1,                       ! Name
  {43445184-e1fa-45f9-9293-1ace6cf7c0a0}, ! UUID
  {4c2e74a6-9bd1-4d1f-ba9b-9d9466b778dd}, ! Version UUID
  1363981167,                             ! Creation Timestamp
  1363981167,                             ! Version Timestamp
  {abaee2b7-7eaf-4331-b089-8dcf898af0ef}, ! Name of Object 1
  {06385e91-9ee0-4409-bd2f-0ce075766d9b}, ! Name of Object 2
  {37963d5f-7c9e-4541-8c27-5157f30521fb}, ! Name of Object 3
  {c65d01a4-b208-4d3d-b1bb-b1c5ec194748}, ! Name of Object 4
  {9d71d809-27a7-434f-bdb0-4382804b22c8}; ! Name of Object 5

