
OS:Version,
  {392fc1b5-7f06-4dff-9c57-31aff7c0b82c}, ! Handle
  0.9.3;                                  ! Version Identifier

OS:Material,
  {c2c7bad5-5ff1-40d4-bcd0-4dc93d3592ba}, ! Handle
  Metal Roofing,                          ! Name
  MediumSmooth,                           ! Roughness
  0.001524,                               ! Thickness {m}
  45.006,                                 ! Conductivity {W/m-K}
  7680,                                   ! Density {kg/m3}
  418.4,                                  ! Specific Heat {J/kg-K}
  0.9,                                    ! Thermal Absorptance
  0.7,                                    ! Solar Absorptance
  0.3;                                    ! Visible Absorptance

OS:Construction,
  {46d64b70-2bf2-4589-bb35-fa702295be33}, ! Handle
  90.1-2001 Res B19 Roof Metal Building,  ! Name
  ,                                       ! Surface Rendering Name
  {c2c7bad5-5ff1-40d4-bcd0-4dc93d3592ba}, ! Layer 1
  {9cad1ad1-63ef-4172-aeeb-1b2618eacea3}; ! Layer 2

OS:Material,
  {9cad1ad1-63ef-4172-aeeb-1b2618eacea3}, ! Handle
  Roof Insulation [1],                    ! Name
  MediumRough,                            ! Roughness
  0.123533,                               ! Thickness {m}
  0.049,                                  ! Conductivity {W/m-K}
  265,                                    ! Density {kg/m3}
  836.8,                                  ! Specific Heat {J/kg-K}
  0.9,                                    ! Thermal Absorptance
  0.7,                                    ! Solar Absorptance
  0.7;                                    ! Visible Absorptance

OS:ComponentCost:LineItem,
  {2cd59c9e-25f7-436e-8738-550c95d290d0}, ! Handle
  90.1-2001 Res B19 Roof Metal Building,  ! Name
  ,                                       ! Type
  Construction,                           ! Line Item Type
  90.1-2001 Res B19 Roof Metal Building,  ! Item Name
  ,                                       ! Object End Use Key
  ,                                       ! Quantity {dimensionless}
  38.206,                                 ! Material Cost {$}
  CostPerArea;                            ! Material Cost Units

