
OS:Version,
  {4db02807-14b2-458b-ae23-2672c6eb4b76}, ! Handle
  0.9.3;                                  ! Version Identifier

OS:ComponentCost:LineItem,
  {98031ce8-93c4-486a-b824-67c124cd22c4}, ! Handle
  90.1-2007 Res 8A Ext Slab Unheated - 4in Slab with Carpet, ! Name
  ,                                       ! Type
  Construction,                           ! Line Item Type
  90.1-2007 Res 8A Ext Slab Unheated - 4in Slab with Carpet, ! Item Name
  ,                                       ! Object End Use Key
  ,                                       ! Quantity {dimensionless}
  45.52,                                  ! Material Cost {$}
  CostPerArea;                            ! Material Cost Units

OS:Material:NoMass,
  {79f40c32-ac58-4b77-976c-d29c0c4c8e3f}, ! Handle
  CP02 CARPET PAD,                        ! Name
  VeryRough,                              ! Roughness
  0.21648,                                ! Thermal Resistance {m2-K/W}
  0.9,                                    ! Thermal Absorptance
  0.7,                                    ! Solar Absorptance
  0.8;                                    ! Visible Absorptance

OS:Construction,
  {59e8c99f-6d17-491e-b2d0-e8e16c51bd98}, ! Handle
  90.1-2007 Res 8A Ext Slab Unheated - 4in Slab with Carpet, ! Name
  ,                                       ! Surface Rendering Name
  {495e8c4d-d2fc-4f2e-bbca-ecbd2278f57b}, ! Layer 1
  {79f40c32-ac58-4b77-976c-d29c0c4c8e3f}; ! Layer 2

OS:Material,
  {495e8c4d-d2fc-4f2e-bbca-ecbd2278f57b}, ! Handle
  MAT-CC05 4 HW CONCRETE,                 ! Name
  Rough,                                  ! Roughness
  0.1016,                                 ! Thickness {m}
  1.311,                                  ! Conductivity {W/m-K}
  2240,                                   ! Density {kg/m3}
  836.8,                                  ! Specific Heat {J/kg-K}
  0.9,                                    ! Thermal Absorptance
  0.7,                                    ! Solar Absorptance
  0.7;                                    ! Visible Absorptance

