
OS:Version,
  {74f9be60-c7a2-423e-b349-61356c53ff3b}, !- Handle
  1.1.0;                                  !- Version Identifier

OS:Construction,
  {d67d4e2f-c184-4801-b70b-a4d5fba6ca8c}, !- Handle
  Dbl Grey 3mm/13mm Arg,                  !- Name
  ,                                       !- Surface Rendering Name
  {6cbae5ee-7715-4e3b-863c-cd887656c92d}, !- Layer 1
  {b7cb4564-e6f2-43ee-af9e-8cf87f5a0b66}, !- Layer 2
  {ba51a840-a952-43cb-8403-9b9ccbace98f}; !- Layer 3

OS:WindowMaterial:Glazing,
  {6cbae5ee-7715-4e3b-863c-cd887656c92d}, !- Handle
  GREY 3MM,                               !- Name
  SpectralAverage,                        !- Optical Data Type
  ,                                       !- Window Glass Spectral Data Set Name
  0.003,                                  !- Thickness {m}
  0.626,                                  !- Solar Transmittance at Normal Incidence
  0.061,                                  !- Front Side Solar Reflectance at Normal Incidence
  0.061,                                  !- Back Side Solar Reflectance at Normal Incidence
  0.611,                                  !- Visible Transmittance at Normal Incidence
  0.061,                                  !- Front Side Visible Reflectance at Normal Incidence
  0.061,                                  !- Back Side Visible Reflectance at Normal Incidence
  0,                                      !- Infrared Transmittance at Normal Incidence
  0.84,                                   !- Front Side Infrared Hemispherical Emissivity
  0.84,                                   !- Back Side Infrared Hemispherical Emissivity
  0.9;                                    !- Conductivity {W/m-K}

OS:WindowMaterial:Gas,
  {b7cb4564-e6f2-43ee-af9e-8cf87f5a0b66}, !- Handle
  ARGON 13MM,                             !- Name
  Argon,                                  !- Gas Type
  0.0127;                                 !- Thickness {m}

OS:WindowMaterial:Glazing,
  {ba51a840-a952-43cb-8403-9b9ccbace98f}, !- Handle
  CLEAR 3MM,                              !- Name
  SpectralAverage,                        !- Optical Data Type
  ,                                       !- Window Glass Spectral Data Set Name
  0.003,                                  !- Thickness {m}
  0.837,                                  !- Solar Transmittance at Normal Incidence
  0.075,                                  !- Front Side Solar Reflectance at Normal Incidence
  0.075,                                  !- Back Side Solar Reflectance at Normal Incidence
  0.898,                                  !- Visible Transmittance at Normal Incidence
  0.081,                                  !- Front Side Visible Reflectance at Normal Incidence
  0.081,                                  !- Back Side Visible Reflectance at Normal Incidence
  0,                                      !- Infrared Transmittance at Normal Incidence
  0.84,                                   !- Front Side Infrared Hemispherical Emissivity
  0.84,                                   !- Back Side Infrared Hemispherical Emissivity
  0.9;                                    !- Conductivity {W/m-K}

