
OS:Version,
  {d43847b7-f7b8-4ad7-9d0e-06c2a3144560}, ! Handle
  0.9.3;                                  ! Version Identifier

OS:Construction,
  {5c42d5eb-1836-4a9e-9cf5-bdb6c4bdb122}, ! Handle
  90.1-1999 Res B5 Skylight without Curb, ! Name
  ,                                       ! Surface Rendering Name
  {e1c9750e-f0b5-4adc-851d-3580b94808ac}; ! Layer 1

OS:WindowMaterial:Glazing,
  {e1c9750e-f0b5-4adc-851d-3580b94808ac}, ! Handle
  Theoretical Glass [63],                 ! Name
  SpectralAverage,                        ! Optical Data Type
  ,                                       ! Window Glass Spectral Data Set Name
  0.003,                                  ! Thickness {m}
  0.177255,                               ! Solar Transmittance at Normal Incidence
  0.772745,                               ! Front Side Solar Reflectance at Normal Incidence
  0.772745,                               ! Back Side Solar Reflectance at Normal Incidence
  0.176052,                               ! Visible Transmittance at Normal Incidence
  0.773948,                               ! Front Side Visible Reflectance at Normal Incidence
  0.773948,                               ! Back Side Visible Reflectance at Normal Incidence
  0,                                      ! Infrared Transmittance at Normal Incidence
  0.999,                                  ! Front Side Infrared Hemispherical Emissivity
  0.999,                                  ! Back Side Infrared Hemispherical Emissivity
  72.7123;                                ! Conductivity {W/m-K}

OS:ComponentCost:LineItem,
  {ac76e0e6-d81b-4951-a10f-e6cb8dbc1831}, ! Handle
  90.1-1999 Res B5 Skylight without Curb, ! Name
  ,                                       ! Type
  Construction,                           ! Line Item Type
  90.1-1999 Res B5 Skylight without Curb, ! Item Name
  ,                                       ! Object End Use Key
  ,                                       ! Quantity {dimensionless}
  539.136,                                ! Material Cost {$}
  CostPerArea;                            ! Material Cost Units

