
OS:Version,
  {bce202b7-1391-4b63-ba3c-8672e7b0b598}, ! Handle
  0.9.3;                                  ! Version Identifier

OS:Material,
  {f07fe77c-2207-400f-83a3-e30c20416559}, ! Handle
  1/2IN Gypsum,                           ! Name
  Smooth,                                 ! Roughness
  0.01271,                                ! Thickness {m}
  0.16,                                   ! Conductivity {W/m-K}
  784.9,                                  ! Density {kg/m3}
  830,                                    ! Specific Heat {J/kg-K}
  0.9,                                    ! Thermal Absorptance
  0.92,                                   ! Solar Absorptance
  0.92;                                   ! Visible Absorptance

OS:Material,
  {786fd40e-0d26-43b9-baca-e683af872c0f}, ! Handle
  Wood Shingles,                          ! Name
  VeryRough,                              ! Roughness
  0.0178,                                 ! Thickness {m}
  0.115,                                  ! Conductivity {W/m-K}
  513,                                    ! Density {kg/m3}
  1255,                                   ! Specific Heat {J/kg-K}
  0.9,                                    ! Thermal Absorptance
  0.78,                                   ! Solar Absorptance
  0.78;                                   ! Visible Absorptance

OS:ComponentCost:LineItem,
  {e642d364-bb97-47a8-aef3-dd915456edc5}, ! Handle
  90.1-2007 Res 7A Roof Attic and Other,  ! Name
  ,                                       ! Type
  Construction,                           ! Line Item Type
  90.1-2007 Res 7A Roof Attic and Other,  ! Item Name
  ,                                       ! Object End Use Key
  ,                                       ! Quantity {dimensionless}
  34.757,                                 ! Material Cost {$}
  CostPerArea;                            ! Material Cost Units

OS:Material,
  {b7e76dbe-2337-4b8e-af8d-2c3be2bc46ce}, ! Handle
  1IN Wood Decking,                       ! Name
  MediumSmooth,                           ! Roughness
  0.0254,                                 ! Thickness {m}
  0.1211,                                 ! Conductivity {W/m-K}
  593,                                    ! Density {kg/m3}
  2510,                                   ! Specific Heat {J/kg-K}
  0.9,                                    ! Thermal Absorptance
  0.78,                                   ! Solar Absorptance
  0.78;                                   ! Visible Absorptance

OS:Construction,
  {dd1b70e9-48d2-4934-8a1a-92c845f813e6}, ! Handle
  90.1-2007 Res 7A Roof Attic and Other,  ! Name
  ,                                       ! Surface Rendering Name
  {786fd40e-0d26-43b9-baca-e683af872c0f}, ! Layer 1
  {b7e76dbe-2337-4b8e-af8d-2c3be2bc46ce}, ! Layer 2
  {bc888a6b-3ed9-4c05-8aee-cd137ef9c7e0}, ! Layer 3
  {f07fe77c-2207-400f-83a3-e30c20416559}; ! Layer 4

OS:Material,
  {bc888a6b-3ed9-4c05-8aee-cd137ef9c7e0}, ! Handle
  Roof Insulation [5],                    ! Name
  MediumRough,                            ! Roughness
  0.286906,                               ! Thickness {m}
  0.049,                                  ! Conductivity {W/m-K}
  265,                                    ! Density {kg/m3}
  836.8,                                  ! Specific Heat {J/kg-K}
  0.9,                                    ! Thermal Absorptance
  0.7,                                    ! Solar Absorptance
  0.7;                                    ! Visible Absorptance

