
OS:Version,
  {42dae880-7351-4e02-aff9-29ad51b16531}, ! Handle
  0.9.3;                                  ! Version Identifier

OS:Construction,
  {55f084c6-22ee-4ce0-acd5-096636055aff}, ! Handle
  90.1-2001 Res B1 Ext Wall Mass,         ! Name
  ,                                       ! Surface Rendering Name
  {e3050530-25b9-4bc0-a26c-7d1f806b1c07}, ! Layer 1
  {f17eee6a-36d8-4003-8399-e7d0f96b5ef3}, ! Layer 2
  {1dfd6aea-7bfb-43a2-b702-19b503dcb5bc}, ! Layer 3
  {9f949928-4e8f-4201-baa3-4e0f460fa013}; ! Layer 4

OS:Material,
  {e3050530-25b9-4bc0-a26c-7d1f806b1c07}, ! Handle
  1IN Stucco,                             ! Name
  Smooth,                                 ! Roughness
  0.0253,                                 ! Thickness {m}
  0.6918,                                 ! Conductivity {W/m-K}
  1858,                                   ! Density {kg/m3}
  837,                                    ! Specific Heat {J/kg-K}
  0.9,                                    ! Thermal Absorptance
  0.92,                                   ! Solar Absorptance
  0.92;                                   ! Visible Absorptance

OS:Material,
  {f17eee6a-36d8-4003-8399-e7d0f96b5ef3}, ! Handle
  8IN Concrete HW,                        ! Name
  MediumRough,                            ! Roughness
  0.2033,                                 ! Thickness {m}
  1.7296,                                 ! Conductivity {W/m-K}
  2243,                                   ! Density {kg/m3}
  837,                                    ! Specific Heat {J/kg-K}
  0.9,                                    ! Thermal Absorptance
  0.65,                                   ! Solar Absorptance
  0.65;                                   ! Visible Absorptance

OS:Material,
  {1dfd6aea-7bfb-43a2-b702-19b503dcb5bc}, ! Handle
  Wall Insulation [4],                    ! Name
  MediumRough,                            ! Roughness
  0.0338606,                              ! Thickness {m}
  0.0432,                                 ! Conductivity {W/m-K}
  91,                                     ! Density {kg/m3}
  837,                                    ! Specific Heat {J/kg-K}
  0.9,                                    ! Thermal Absorptance
  0.5,                                    ! Solar Absorptance
  0.5;                                    ! Visible Absorptance

OS:Material,
  {9f949928-4e8f-4201-baa3-4e0f460fa013}, ! Handle
  1/2IN Gypsum,                           ! Name
  Smooth,                                 ! Roughness
  0.01271,                                ! Thickness {m}
  0.16,                                   ! Conductivity {W/m-K}
  784.9,                                  ! Density {kg/m3}
  830,                                    ! Specific Heat {J/kg-K}
  0.9,                                    ! Thermal Absorptance
  0.92,                                   ! Solar Absorptance
  0.92;                                   ! Visible Absorptance

OS:ComponentCost:LineItem,
  {e1d2971f-a50c-448e-abb1-92c34e5e183c}, ! Handle
  90.1-2001 Res B1 Ext Wall Mass,         ! Name
  ,                                       ! Type
  Construction,                           ! Line Item Type
  90.1-2001 Res B1 Ext Wall Mass,         ! Item Name
  ,                                       ! Object End Use Key
  ,                                       ! Quantity {dimensionless}
  58.897,                                 ! Material Cost {$}
  CostPerArea;                            ! Material Cost Units

OS:ComponentData,
  {b1bd69a1-7dbe-4d33-b761-3d67b096e362}, ! Handle
  Component Data 1,                       ! Name
  {98110149-96ea-457d-9fd1-35cee6642566}, ! UUID
  {4f45d751-602f-4cea-bf5a-00cf42df69d3}, ! Version UUID
  1363981445,                             ! Creation Timestamp
  1363981445,                             ! Version Timestamp
  {55f084c6-22ee-4ce0-acd5-096636055aff}, ! Name of Object 1
  {e3050530-25b9-4bc0-a26c-7d1f806b1c07}, ! Name of Object 2
  {f17eee6a-36d8-4003-8399-e7d0f96b5ef3}, ! Name of Object 3
  {1dfd6aea-7bfb-43a2-b702-19b503dcb5bc}, ! Name of Object 4
  {9f949928-4e8f-4201-baa3-4e0f460fa013}, ! Name of Object 5
  {e1d2971f-a50c-448e-abb1-92c34e5e183c}; ! Name of Object 6

