
OS:Version,
  {f0ffaf03-9ecb-44f5-b482-6f436739dcf3}, ! Handle
  0.9.3;                                  ! Version Identifier

OS:Material:NoMass,
  {6f314b2b-dad4-42e9-9129-223a5d905283}, ! Handle
  MAT-SHEATH,                             ! Name
  Rough,                                  ! Roughness
  0.36256,                                ! Thermal Resistance {m2-K/W}
  0.9,                                    ! Thermal Absorptance
  0.7,                                    ! Solar Absorptance
  0.7;                                    ! Visible Absorptance

OS:ComponentCost:LineItem,
  {e14fdf85-db06-4461-bb73-c965d7e7e26c}, ! Handle
  AEDG-SmOffice 3A Ext Wall Steel-Framed, ! Name
  ,                                       ! Type
  Construction,                           ! Line Item Type
  AEDG-SmOffice 3A Ext Wall Steel-Framed, ! Item Name
  ,                                       ! Object End Use Key
  ,                                       ! Quantity {dimensionless}
  91.666,                                 ! Material Cost {$}
  CostPerArea;                            ! Material Cost Units

OS:Construction,
  {6edd38cc-33b6-4d28-a674-14bc7052471f}, ! Handle
  AEDG-SmOffice 3A Ext Wall Steel-Framed, ! Name
  ,                                       ! Surface Rendering Name
  {6f314b2b-dad4-42e9-9129-223a5d905283}, ! Layer 1
  {3fa4e320-49e3-4423-89a8-922a9c8ac237}, ! Layer 2
  {eca4ac70-89be-425c-9a47-5dd58dfb3bb2}; ! Layer 3

OS:Material,
  {3fa4e320-49e3-4423-89a8-922a9c8ac237}, ! Handle
  Wall Insulation [51],                   ! Name
  MediumRough,                            ! Roughness
  0.067188,                               ! Thickness {m}
  0.045,                                  ! Conductivity {W/m-K}
  265,                                    ! Density {kg/m3}
  836.8,                                  ! Specific Heat {J/kg-K}
  0.9,                                    ! Thermal Absorptance
  0.7,                                    ! Solar Absorptance
  0.7;                                    ! Visible Absorptance

OS:Material,
  {eca4ac70-89be-425c-9a47-5dd58dfb3bb2}, ! Handle
  1/2IN Gypsum,                           ! Name
  Smooth,                                 ! Roughness
  0.01271,                                ! Thickness {m}
  0.16,                                   ! Conductivity {W/m-K}
  784.9,                                  ! Density {kg/m3}
  830,                                    ! Specific Heat {J/kg-K}
  0.9,                                    ! Thermal Absorptance
  0.92,                                   ! Solar Absorptance
  0.92;                                   ! Visible Absorptance

