
OS:Version,
  {1287ccc3-1417-4a04-8954-6ee00257726a}, ! Handle
  0.9.3;                                  ! Version Identifier

OS:Construction,
  {24f8cca6-c53e-49ad-9b2f-231582511699}, ! Handle
  AEDG-SmOffice 3A Ext Wall Wood-Framed and Other, ! Name
  ,                                       ! Surface Rendering Name
  {1fe3c81f-474b-47fa-b490-845cec0c2b70}, ! Layer 1
  {d292adc2-3b12-4b0f-ba0a-1cf7f1b7f937}, ! Layer 2
  {06fbc2b9-6a45-49a7-8565-bcf03435c623}; ! Layer 3

OS:Material,
  {1fe3c81f-474b-47fa-b490-845cec0c2b70}, ! Handle
  Wood Siding,                            ! Name
  MediumSmooth,                           ! Roughness
  0.01,                                   ! Thickness {m}
  0.11,                                   ! Conductivity {W/m-K}
  544.62,                                 ! Density {kg/m3}
  1210,                                   ! Specific Heat {J/kg-K}
  0.9,                                    ! Thermal Absorptance
  0.78,                                   ! Solar Absorptance
  0.78;                                   ! Visible Absorptance

OS:Material,
  {d292adc2-3b12-4b0f-ba0a-1cf7f1b7f937}, ! Handle
  Wall Insulation [2],                    ! Name
  MediumRough,                            ! Roughness
  0.0746874,                              ! Thickness {m}
  0.045,                                  ! Conductivity {W/m-K}
  265,                                    ! Density {kg/m3}
  836.8,                                  ! Specific Heat {J/kg-K}
  0.9,                                    ! Thermal Absorptance
  0.7,                                    ! Solar Absorptance
  0.7;                                    ! Visible Absorptance

OS:Material,
  {06fbc2b9-6a45-49a7-8565-bcf03435c623}, ! Handle
  1/2IN Gypsum,                           ! Name
  Smooth,                                 ! Roughness
  0.01271,                                ! Thickness {m}
  0.16,                                   ! Conductivity {W/m-K}
  784.9,                                  ! Density {kg/m3}
  830,                                    ! Specific Heat {J/kg-K}
  0.9,                                    ! Thermal Absorptance
  0.92,                                   ! Solar Absorptance
  0.92;                                   ! Visible Absorptance

OS:ComponentCost:LineItem,
  {67092b3e-3480-4292-867b-292df5c8fe0c}, ! Handle
  AEDG-SmOffice 3A Ext Wall Wood-Framed and Other, ! Name
  ,                                       ! Type
  Construction,                           ! Line Item Type
  AEDG-SmOffice 3A Ext Wall Wood-Framed and Other, ! Item Name
  ,                                       ! Object End Use Key
  ,                                       ! Quantity {dimensionless}
  73.056,                                 ! Material Cost {$}
  CostPerArea;                            ! Material Cost Units

OS:ComponentData,
  {8bc953ee-7518-4e0c-beb7-b11e54ef660d}, ! Handle
  Component Data 1,                       ! Name
  {2dd727e5-6d08-4c51-bcdc-973808458de4}, ! UUID
  {0e33c4f7-f023-4ba4-8b00-f6a1a4d318c0}, ! Version UUID
  1363981947,                             ! Creation Timestamp
  1363981947,                             ! Version Timestamp
  {24f8cca6-c53e-49ad-9b2f-231582511699}, ! Name of Object 1
  {1fe3c81f-474b-47fa-b490-845cec0c2b70}, ! Name of Object 2
  {d292adc2-3b12-4b0f-ba0a-1cf7f1b7f937}, ! Name of Object 3
  {06fbc2b9-6a45-49a7-8565-bcf03435c623}, ! Name of Object 4
  {67092b3e-3480-4292-867b-292df5c8fe0c}; ! Name of Object 5

