
OS:Version,
  {ae2d0c0b-0c36-483e-9edc-542b742ddf52}, ! Handle
  0.9.3;                                  ! Version Identifier

OS:Construction,
  {8bb537a4-c5b9-470a-95b6-0fc0186b96cf}, ! Handle
  AEDG-SmOffice 3A Ext Wall Wood-Framed and Other, ! Name
  ,                                       ! Surface Rendering Name
  {be9b840c-82e4-472c-ba33-7d1f95cd24d1}, ! Layer 1
  {47ee2de7-50e1-4220-b727-1c8623f976f3}, ! Layer 2
  {9c71f9ed-4634-46ec-a288-faa5a3a27989}; ! Layer 3

OS:Material,
  {be9b840c-82e4-472c-ba33-7d1f95cd24d1}, ! Handle
  Wood Siding,                            ! Name
  MediumSmooth,                           ! Roughness
  0.01,                                   ! Thickness {m}
  0.11,                                   ! Conductivity {W/m-K}
  544.62,                                 ! Density {kg/m3}
  1210,                                   ! Specific Heat {J/kg-K}
  0.9,                                    ! Thermal Absorptance
  0.78,                                   ! Solar Absorptance
  0.78;                                   ! Visible Absorptance

OS:Material,
  {47ee2de7-50e1-4220-b727-1c8623f976f3}, ! Handle
  Wall Insulation [2],                    ! Name
  MediumRough,                            ! Roughness
  0.0746874,                              ! Thickness {m}
  0.045,                                  ! Conductivity {W/m-K}
  265,                                    ! Density {kg/m3}
  836.8,                                  ! Specific Heat {J/kg-K}
  0.9,                                    ! Thermal Absorptance
  0.7,                                    ! Solar Absorptance
  0.7;                                    ! Visible Absorptance

OS:Material,
  {9c71f9ed-4634-46ec-a288-faa5a3a27989}, ! Handle
  1/2IN Gypsum,                           ! Name
  Smooth,                                 ! Roughness
  0.01271,                                ! Thickness {m}
  0.16,                                   ! Conductivity {W/m-K}
  784.9,                                  ! Density {kg/m3}
  830,                                    ! Specific Heat {J/kg-K}
  0.9,                                    ! Thermal Absorptance
  0.92,                                   ! Solar Absorptance
  0.92;                                   ! Visible Absorptance

OS:ComponentCost:LineItem,
  {80073382-94b9-4fc8-986a-2cadaa91cf5c}, ! Handle
  AEDG-SmOffice 3A Ext Wall Wood-Framed and Other, ! Name
  ,                                       ! Type
  Construction,                           ! Line Item Type
  AEDG-SmOffice 3A Ext Wall Wood-Framed and Other, ! Item Name
  ,                                       ! Object End Use Key
  ,                                       ! Quantity {dimensionless}
  73.056,                                 ! Material Cost {$}
  CostPerArea;                            ! Material Cost Units

