
OS:Version,
  {349f9e12-4b55-4b24-800b-ccb192288561}, ! Handle
  0.9.3;                                  ! Version Identifier

OS:Construction,
  {52b0bc40-3af4-4ebc-b480-c630c9ddcba6}, ! Handle
  90.1 Windows Window Fixed 2616 Vnl-HptMpr-Ins-Clr, ! Name
  ,                                       ! Surface Rendering Name
  {17736873-b7f7-42e9-bc0c-21fa468bfad1}; ! Layer 1

OS:WindowMaterial:Glazing,
  {17736873-b7f7-42e9-bc0c-21fa468bfad1}, ! Handle
  Theoretical Glass [514],                ! Name
  SpectralAverage,                        ! Optical Data Type
  ,                                       ! Window Glass Spectral Data Set Name
  0.003,                                  ! Thickness {m}
  0.235397,                               ! Solar Transmittance at Normal Incidence
  0.714603,                               ! Front Side Solar Reflectance at Normal Incidence
  0.714603,                               ! Back Side Solar Reflectance at Normal Incidence
  0.330719,                               ! Visible Transmittance at Normal Incidence
  0.619281,                               ! Front Side Visible Reflectance at Normal Incidence
  0.619281,                               ! Back Side Visible Reflectance at Normal Incidence
  0,                                      ! Infrared Transmittance at Normal Incidence
  0.9,                                    ! Front Side Infrared Hemispherical Emissivity
  0.9,                                    ! Back Side Infrared Hemispherical Emissivity
  0.0144823;                              ! Conductivity {W/m-K}

OS:ComponentCost:LineItem,
  {aec3de2c-55eb-463e-9e82-12e379417db3}, ! Handle
  90.1 Windows Window Fixed 2616 Vnl-HptMpr-Ins-Clr, ! Name
  ,                                       ! Type
  Construction,                           ! Line Item Type
  90.1 Windows Window Fixed 2616 Vnl-HptMpr-Ins-Clr, ! Item Name
  ,                                       ! Object End Use Key
  ,                                       ! Quantity {dimensionless}
  0,                                      ! Material Cost {$}
  CostPerArea;                            ! Material Cost Units

