
OS:Version,
  {afc12b9a-6d4b-4b15-b15b-9455bff9f417}, ! Handle
  0.9.3;                                  ! Version Identifier

OS:Construction,
  {ee470280-468b-4c1f-a3b9-c81049e686f4}, ! Handle
  90.1-2001 Nonres B3 Ext Slab Unheated - 8in Slab with Carpet, ! Name
  ,                                       ! Surface Rendering Name
  {b797b60a-0a92-4535-b6a9-39a8b826e94d}, ! Layer 1
  {972e4ed2-8e41-4838-b3f9-0297438e0fd3}; ! Layer 2

OS:Material,
  {b797b60a-0a92-4535-b6a9-39a8b826e94d}, ! Handle
  MAT-CC05 8 HW CONCRETE,                 ! Name
  Rough,                                  ! Roughness
  0.20321,                                ! Thickness {m}
  1.311,                                  ! Conductivity {W/m-K}
  2240,                                   ! Density {kg/m3}
  836.8,                                  ! Specific Heat {J/kg-K}
  0.9,                                    ! Thermal Absorptance
  0.7,                                    ! Solar Absorptance
  0.7;                                    ! Visible Absorptance

OS:Material:NoMass,
  {972e4ed2-8e41-4838-b3f9-0297438e0fd3}, ! Handle
  CP02 CARPET PAD,                        ! Name
  VeryRough,                              ! Roughness
  0.21648,                                ! Thermal Resistance {m2-K/W}
  0.9,                                    ! Thermal Absorptance
  0.7,                                    ! Solar Absorptance
  0.8;                                    ! Visible Absorptance

OS:ComponentCost:LineItem,
  {a1d7f36e-8dc7-4ff6-a53e-c0cfd39af6ef}, ! Handle
  90.1-2001 Nonres B3 Ext Slab Unheated - 8in Slab with Carpet, ! Name
  ,                                       ! Type
  Construction,                           ! Line Item Type
  90.1-2001 Nonres B3 Ext Slab Unheated - 8in Slab with Carpet, ! Item Name
  ,                                       ! Object End Use Key
  ,                                       ! Quantity {dimensionless}
  45.52,                                  ! Material Cost {$}
  CostPerArea;                            ! Material Cost Units

