
OS:Version,
  {13f9c844-5594-4a60-8a69-27a4c05a408f}, ! Handle
  0.9.3;                                  ! Version Identifier

OS:Material,
  {c200fd44-5aa4-4541-9849-ae7dbbf22c9a}, ! Handle
  Metal Siding,                           ! Name
  Smooth,                                 ! Roughness
  0.0015,                                 ! Thickness {m}
  44.96,                                  ! Conductivity {W/m-K}
  7688.86,                                ! Density {kg/m3}
  410,                                    ! Specific Heat {J/kg-K}
  0.9,                                    ! Thermal Absorptance
  0.2,                                    ! Solar Absorptance
  0.2;                                    ! Visible Absorptance

OS:Material,
  {ecfe9390-e239-4099-80f8-f03223d051da}, ! Handle
  1/2IN Gypsum,                           ! Name
  Smooth,                                 ! Roughness
  0.01271,                                ! Thickness {m}
  0.16,                                   ! Conductivity {W/m-K}
  784.9,                                  ! Density {kg/m3}
  830,                                    ! Specific Heat {J/kg-K}
  0.9,                                    ! Thermal Absorptance
  0.92,                                   ! Solar Absorptance
  0.92;                                   ! Visible Absorptance

OS:Material,
  {034ed0ee-76fc-4b08-abd7-00377435c037}, ! Handle
  Wall Insulation [159],                  ! Name
  MediumRough,                            ! Roughness
  0.0812,                                 ! Thickness {m}
  0.045,                                  ! Conductivity {W/m-K}
  265,                                    ! Density {kg/m3}
  836.8,                                  ! Specific Heat {J/kg-K}
  0.9,                                    ! Thermal Absorptance
  0.7,                                    ! Solar Absorptance
  0.7;                                    ! Visible Absorptance

OS:ComponentCost:LineItem,
  {4571a4fc-d76b-4142-80d4-88ff42f6a000}, ! Handle
  Title 24-2008 Nonres 16 Ext Wall Metal Building, ! Name
  ,                                       ! Type
  Construction,                           ! Line Item Type
  Title 24-2008 Nonres 16 Ext Wall Metal Building, ! Item Name
  ,                                       ! Object End Use Key
  ,                                       ! Quantity {dimensionless}
  184.211,                                ! Material Cost {$}
  CostPerArea;                            ! Material Cost Units

OS:Construction,
  {fd872928-8b7e-4327-a365-5d49ce8edbc9}, ! Handle
  Title 24-2008 Nonres 16 Ext Wall Metal Building, ! Name
  ,                                       ! Surface Rendering Name
  {c200fd44-5aa4-4541-9849-ae7dbbf22c9a}, ! Layer 1
  {034ed0ee-76fc-4b08-abd7-00377435c037}, ! Layer 2
  {ecfe9390-e239-4099-80f8-f03223d051da}; ! Layer 3

