
OS:Version,
  {2a1ec191-d3fa-4339-8ec2-6035364be7d5}, ! Handle
  0.9.3;                                  ! Version Identifier

OS:Construction,
  {93ea54cc-c08b-4234-82ff-c75dde751f91}, !- Handle
  CLIMALIT PLUS con COOL LITE SKN 144 II F2 6 (16 argon90%) 44.2,                         !- Name
  ,                                       !- Surface Rendering Name
  {a32cbd09-a575-4821-808e-317f4f010cf0}; !- Layer 1  
  



        
OS:WindowMaterial:SimpleGlazingSystem,
  {a32cbd09-a575-4821-808e-317f4f010cf0}, !- Handle
  CLIMALIT PLUS con COOL LITE SKN 144 II F2 6 (16 argon90%) 44.2, !- Name
  1.1,                                    !- U-Factor {W/m2-K}
  0.23,                                    !- Solar Heat Gain Coefficient
  0.41;                                    !- Visible Transmittance     


OS:ComponentCost:LineItem,
  {19140d91-bb16-4171-8bdf-357d6b7dbf56}, ! Handle
  CLIMALIT PLUS con COOL LITE SKN 144 II F2 6 (16 argon90%) 44.2,        ! Name
  ,                                       ! Type
  Construction,                           ! Line Item Type
  CLIMALIT PLUS con COOL LITE SKN 144 II F2 6 (16 argon90%) 44.2,        ! Item Name
  ,                                       ! Object End Use Key
  ,                                       ! Quantity {dimensionless}
  600.0,                                ! Material Cost {$}
  CostPerArea;                            ! Material Cost Units



OS:ComponentData,
  {8d15d141-3ab5-4f7c-9519-d401849eeb2a}, ! Handle
  Component Data 1,                       ! Name
  {c3b28bc1-42a8-4879-ab98-8f49dffa1dd6}, ! UUID
  {3f22832f-e6df-4bf9-b387-19ed08567c02}, ! Version UUID
  1487924014,                             ! Creation Timestamp
  1487924014,                             ! Version Timestamp
  {93ea54cc-c08b-4234-82ff-c75dde751f91}, ! Name of Object 1
  {a32cbd09-a575-4821-808e-317f4f010cf0}, ! Name of Object 2
  {19140d91-bb16-4171-8bdf-357d6b7dbf56}; ! Name of Object 3

  

