
! 
OS:Version,
  {9c37d538-db0d-4a47-9850-5bede7e76bd5}, !- Handle
  1.13.0;                                 !- Version Identifier


! {"nombreProductoCorto": "CLIMALIT PLUS con COOL LITE SKN 144 II F2 6 (16 argon90%) 44.2", "codigoEAN": "", "handle": "a32cbd09-a575-4821-808e-317f4f010cf0", "g": 0.23, "tV": 0.41, "u": 1.1, "nombreProducto": "CLIMALIT PLUS con COOL LITE SKN 144 II F2 6 (16 argon90%) 44.2\nU:1.1 W/m2K - g:0.23 - Tv: 0.41"}
OS:WindowMaterial:SimpleGlazingSystem,
  {a32cbd09-a575-4821-808e-317f4f010cf0}, !- Handle
  CLIMALIT PLUS con COOL LITE SKN 144 II F2 6 (16 argon90%) 44.2, !- Name
  1.1,                                    !- U-Factor {W/m2-K}
  0.23,                                    !- Solar Heat Gain Coefficient
  0.41;                                    !- Visible Transmittance     
  
  
OS:Construction,
  {3b272afd-68ae-46a8-888d-6cd152497f58}, !- Handle
  CLIMALIT PLUS con COOL LITE SKN 144 II F2 6 (16 argon90%) 44.2,                         !- Name
  ,                                       !- Surface Rendering Name
  {a32cbd09-a575-4821-808e-317f4f010cf0}; !- Layer 1  

