
! 
OS:Version,
  {9c37d538-db0d-4a47-9850-5bede7e76bd5}, !- Handle
  1.13.0;                                 !- Version Identifier


! {"nombreProductoCorto": "STADIP 1010.2 DIAMANT con COOL-LITE ST050", "codigoEAN": "", "handle": "f76a0c97-764f-41e0-8e21-da82f1f8971d", "g": 0.54, "tV": 0.52, "u": 5.2, "nombreProducto": "STADIP 1010.2 DIAMANT con COOL-LITE ST050\nU:5.2 W/m2K - g:0.54 - Tv: 0.52"}
OS:WindowMaterial:SimpleGlazingSystem,
  {f76a0c97-764f-41e0-8e21-da82f1f8971d}, !- Handle
  STADIP 1010.2 DIAMANT con COOL-LITE ST050, !- Name
  5.2,                                    !- U-Factor {W/m2-K}
  0.54,                                    !- Solar Heat Gain Coefficient
  0.52;                                    !- Visible Transmittance     
  
  
OS:Construction,
  {cf2eb8ef-f126-42d0-af35-a7073f432090}, !- Handle
  STADIP 1010.2 DIAMANT con COOL-LITE ST050,                         !- Name
  ,                                       !- Surface Rendering Name
  {f76a0c97-764f-41e0-8e21-da82f1f8971d}; !- Layer 1  

