
OS:Version,
  {65daac18-344f-4f4f-a150-82c4138c5e5b}, ! Handle
  0.9.3;                                  ! Version Identifier

OS:Material:NoMass,
  {e0d575f7-f357-4128-90d3-757cfe3593b8}, ! Handle
  DoorMaterial [1],                       ! Name
  MediumRough,                            ! Roughness
  0.121457,                               ! Thermal Resistance {m2-K/W}
  0.9,                                    ! Thermal Absorptance
  0.7,                                    ! Solar Absorptance
  0.7;                                    ! Visible Absorptance

OS:ComponentCost:LineItem,
  {fa2e0d4a-d2f0-48cc-96e8-c255b27b21b3}, ! Handle
  AEDG-SmOffice 2A Door Non-Swinging,     ! Name
  ,                                       ! Type
  Construction,                           ! Line Item Type
  AEDG-SmOffice 2A Door Non-Swinging,     ! Item Name
  ,                                       ! Object End Use Key
  ,                                       ! Quantity {dimensionless}
  0,                                      ! Material Cost {$}
  CostPerArea;                            ! Material Cost Units

OS:Construction,
  {f6e7720c-25ca-4fae-9918-7e12b1942829}, ! Handle
  AEDG-SmOffice 2A Door Non-Swinging,     ! Name
  ,                                       ! Surface Rendering Name
  {e0d575f7-f357-4128-90d3-757cfe3593b8}; ! Layer 1

