
OS:Version,
  {a2053db1-79f0-4b41-ba13-906d4d19159f}, ! Handle
  0.9.3;                                  ! Version Identifier

OS:Construction,
  {a238e872-f7f5-4d93-8091-6a18a2e756d7}, ! Handle
  AEDG-SmOffice 2A Door Non-Swinging,     ! Name
  ,                                       ! Surface Rendering Name
  {6ded8fb7-836c-4a32-975f-21870ecc350c}; ! Layer 1

OS:Material:NoMass,
  {6ded8fb7-836c-4a32-975f-21870ecc350c}, ! Handle
  DoorMaterial [1],                       ! Name
  MediumRough,                            ! Roughness
  0.121457,                               ! Thermal Resistance {m2-K/W}
  0.9,                                    ! Thermal Absorptance
  0.7,                                    ! Solar Absorptance
  0.7;                                    ! Visible Absorptance

OS:ComponentCost:LineItem,
  {cdd21362-08d0-4a78-b23c-89407a0a4036}, ! Handle
  AEDG-SmOffice 2A Door Non-Swinging,     ! Name
  ,                                       ! Type
  Construction,                           ! Line Item Type
  AEDG-SmOffice 2A Door Non-Swinging,     ! Item Name
  ,                                       ! Object End Use Key
  ,                                       ! Quantity {dimensionless}
  0,                                      ! Material Cost {$}
  CostPerArea;                            ! Material Cost Units

OS:ComponentData,
  {57c3d39a-fe01-4293-91eb-32956da02b88}, ! Handle
  Component Data 1,                       ! Name
  {4dcd6d03-fee8-4fe4-bd0c-87854e317894}, ! UUID
  {bf4f1bf2-88d3-42a5-a4c5-8d22bf2a96c6}, ! Version UUID
  1363981944,                             ! Creation Timestamp
  1363981944,                             ! Version Timestamp
  {a238e872-f7f5-4d93-8091-6a18a2e756d7}, ! Name of Object 1
  {6ded8fb7-836c-4a32-975f-21870ecc350c}, ! Name of Object 2
  {cdd21362-08d0-4a78-b23c-89407a0a4036}; ! Name of Object 3

