
OS:Version,
  {3bdf9650-e9e1-4df4-bdd1-7020d8a898e0}, ! Handle
  0.9.3;                                  ! Version Identifier

OS:Construction,
  {5a8ff9dc-d954-4bcb-8ce3-a5a381cbb833}, ! Handle
  90.1 Windows Window Fixed 2611 Vnl-Clr-Ins-Clr, ! Name
  ,                                       ! Surface Rendering Name
  {fbcc26e4-c786-431c-aee7-d2e2200db7b4}; ! Layer 1

OS:WindowMaterial:Glazing,
  {fbcc26e4-c786-431c-aee7-d2e2200db7b4}, ! Handle
  Theoretical Glass [276],                ! Name
  SpectralAverage,                        ! Optical Data Type
  ,                                       ! Window Glass Spectral Data Set Name
  0.003,                                  ! Thickness {m}
  0.623669,                               ! Solar Transmittance at Normal Incidence
  0.326331,                               ! Front Side Solar Reflectance at Normal Incidence
  0.326331,                               ! Back Side Solar Reflectance at Normal Incidence
  0.679844,                               ! Visible Transmittance at Normal Incidence
  0.270156,                               ! Front Side Visible Reflectance at Normal Incidence
  0.270156,                               ! Back Side Visible Reflectance at Normal Incidence
  0,                                      ! Infrared Transmittance at Normal Incidence
  0.9,                                    ! Front Side Infrared Hemispherical Emissivity
  0.9,                                    ! Back Side Infrared Hemispherical Emissivity
  0.0144853;                              ! Conductivity {W/m-K}

OS:ComponentCost:LineItem,
  {a9fab38a-8018-4b2e-b2f9-bdd969b57324}, ! Handle
  90.1 Windows Window Fixed 2611 Vnl-Clr-Ins-Clr, ! Name
  ,                                       ! Type
  Construction,                           ! Line Item Type
  90.1 Windows Window Fixed 2611 Vnl-Clr-Ins-Clr, ! Item Name
  ,                                       ! Object End Use Key
  ,                                       ! Quantity {dimensionless}
  0,                                      ! Material Cost {$}
  CostPerArea;                            ! Material Cost Units

