
OS:Version,
  {dab1cbd4-cd88-4ce6-9544-5cea4bdcc6ac}, ! Handle
  0.9.3;                                  ! Version Identifier

OS:Construction,
  {6998d233-c0ac-4115-9efb-0a15f7c993e2}, ! Handle
  189.1-2009 Nonres 1A Ext Wall Metal Building, ! Name
  ,                                       ! Surface Rendering Name
  {baa1609c-dba8-4d5b-bc16-dc4956ea3c59}, ! Layer 1
  {2540baac-daa8-45cc-bb9f-99ae38abc603}, ! Layer 2
  {dd6ddf89-d9a1-4a0b-ae17-21b8bb9a8e4a}; ! Layer 3

OS:Material,
  {baa1609c-dba8-4d5b-bc16-dc4956ea3c59}, ! Handle
  Metal Siding,                           ! Name
  Smooth,                                 ! Roughness
  0.0015,                                 ! Thickness {m}
  44.96,                                  ! Conductivity {W/m-K}
  7688.86,                                ! Density {kg/m3}
  410,                                    ! Specific Heat {J/kg-K}
  0.9,                                    ! Thermal Absorptance
  0.2,                                    ! Solar Absorptance
  0.2;                                    ! Visible Absorptance

OS:Material,
  {2540baac-daa8-45cc-bb9f-99ae38abc603}, ! Handle
  Wall Insulation [32],                   ! Name
  MediumRough,                            ! Roughness
  0.0896793,                              ! Thickness {m}
  0.045,                                  ! Conductivity {W/m-K}
  265,                                    ! Density {kg/m3}
  836.8,                                  ! Specific Heat {J/kg-K}
  0.9,                                    ! Thermal Absorptance
  0.7,                                    ! Solar Absorptance
  0.7;                                    ! Visible Absorptance

OS:Material,
  {dd6ddf89-d9a1-4a0b-ae17-21b8bb9a8e4a}, ! Handle
  1/2IN Gypsum,                           ! Name
  Smooth,                                 ! Roughness
  0.01271,                                ! Thickness {m}
  0.16,                                   ! Conductivity {W/m-K}
  784.9,                                  ! Density {kg/m3}
  830,                                    ! Specific Heat {J/kg-K}
  0.9,                                    ! Thermal Absorptance
  0.92,                                   ! Solar Absorptance
  0.92;                                   ! Visible Absorptance

OS:ComponentCost:LineItem,
  {026f5790-74f2-44f8-bbc1-f4475da896bc}, ! Handle
  189.1-2009 Nonres 1A Ext Wall Metal Building, ! Name
  ,                                       ! Type
  Construction,                           ! Line Item Type
  189.1-2009 Nonres 1A Ext Wall Metal Building, ! Item Name
  ,                                       ! Object End Use Key
  ,                                       ! Quantity {dimensionless}
  101.679,                                ! Material Cost {$}
  CostPerArea;                            ! Material Cost Units

OS:ComponentData,
  {40c4a5e9-06a9-4f45-b71c-0b1e62fbe41e}, ! Handle
  Component Data 1,                       ! Name
  {efde9877-c8ad-4ebf-9846-ca2b2ccc395b}, ! UUID
  {94a114ae-2862-4b29-b1e2-3118dd98e178}, ! Version UUID
  1363979818,                             ! Creation Timestamp
  1363979818,                             ! Version Timestamp
  {6998d233-c0ac-4115-9efb-0a15f7c993e2}, ! Name of Object 1
  {baa1609c-dba8-4d5b-bc16-dc4956ea3c59}, ! Name of Object 2
  {2540baac-daa8-45cc-bb9f-99ae38abc603}, ! Name of Object 3
  {dd6ddf89-d9a1-4a0b-ae17-21b8bb9a8e4a}, ! Name of Object 4
  {026f5790-74f2-44f8-bbc1-f4475da896bc}; ! Name of Object 5

