
OS:Version,
  {73c46710-e56b-49ce-a2fc-57b7c5a15e55}, ! Handle
  0.9.3;                                  ! Version Identifier

OS:Material,
  {826cf6f5-0308-4700-8904-3ee08c488601}, ! Handle
  Metal Siding,                           ! Name
  Smooth,                                 ! Roughness
  0.0015,                                 ! Thickness {m}
  44.96,                                  ! Conductivity {W/m-K}
  7688.86,                                ! Density {kg/m3}
  410,                                    ! Specific Heat {J/kg-K}
  0.9,                                    ! Thermal Absorptance
  0.2,                                    ! Solar Absorptance
  0.2;                                    ! Visible Absorptance

OS:ComponentCost:LineItem,
  {8a1ca5c3-aa70-47e2-87d9-40de255cd9e2}, ! Handle
  189.1-2009 Nonres 1A Ext Wall Metal Building, ! Name
  ,                                       ! Type
  Construction,                           ! Line Item Type
  189.1-2009 Nonres 1A Ext Wall Metal Building, ! Item Name
  ,                                       ! Object End Use Key
  ,                                       ! Quantity {dimensionless}
  101.679,                                ! Material Cost {$}
  CostPerArea;                            ! Material Cost Units

OS:Material,
  {bd2d8181-ffab-4c2d-af72-0209567c9ac3}, ! Handle
  Wall Insulation [32],                   ! Name
  MediumRough,                            ! Roughness
  0.0896793,                              ! Thickness {m}
  0.045,                                  ! Conductivity {W/m-K}
  265,                                    ! Density {kg/m3}
  836.8,                                  ! Specific Heat {J/kg-K}
  0.9,                                    ! Thermal Absorptance
  0.7,                                    ! Solar Absorptance
  0.7;                                    ! Visible Absorptance

OS:Construction,
  {3b397787-0ddc-4be3-b537-cfe5da73aeab}, ! Handle
  189.1-2009 Nonres 1A Ext Wall Metal Building, ! Name
  ,                                       ! Surface Rendering Name
  {826cf6f5-0308-4700-8904-3ee08c488601}, ! Layer 1
  {bd2d8181-ffab-4c2d-af72-0209567c9ac3}, ! Layer 2
  {7862b395-07cd-437b-a0f2-0c738c68c798}; ! Layer 3

OS:Material,
  {7862b395-07cd-437b-a0f2-0c738c68c798}, ! Handle
  1/2IN Gypsum,                           ! Name
  Smooth,                                 ! Roughness
  0.01271,                                ! Thickness {m}
  0.16,                                   ! Conductivity {W/m-K}
  784.9,                                  ! Density {kg/m3}
  830,                                    ! Specific Heat {J/kg-K}
  0.9,                                    ! Thermal Absorptance
  0.92,                                   ! Solar Absorptance
  0.92;                                   ! Visible Absorptance

