
OS:Version,
  {6e8b7421-29b2-429f-9246-2bd745e19295}, ! Handle
  0.9.3;                                  ! Version Identifier

OS:Construction,
  {63d7893c-b554-4ebe-b9cd-ba6c115663f9}, ! Handle
  90.1 Windows Window Fixed 2636 Vnl-HptMpr-Ins-ClrSpe, ! Name
  ,                                       ! Surface Rendering Name
  {ea75b560-864b-4a71-881a-f82747eb923d}; ! Layer 1

OS:WindowMaterial:Glazing,
  {ea75b560-864b-4a71-881a-f82747eb923d}, ! Handle
  Theoretical Glass [550],                ! Name
  SpectralAverage,                        ! Optical Data Type
  ,                                       ! Window Glass Spectral Data Set Name
  0.003,                                  ! Thickness {m}
  0.187561,                               ! Solar Transmittance at Normal Incidence
  0.762439,                               ! Front Side Solar Reflectance at Normal Incidence
  0.762439,                               ! Back Side Solar Reflectance at Normal Incidence
  0.301356,                               ! Visible Transmittance at Normal Incidence
  0.648644,                               ! Front Side Visible Reflectance at Normal Incidence
  0.648644,                               ! Back Side Visible Reflectance at Normal Incidence
  0,                                      ! Infrared Transmittance at Normal Incidence
  0.9,                                    ! Front Side Infrared Hemispherical Emissivity
  0.9,                                    ! Back Side Infrared Hemispherical Emissivity
  0.00845731;                             ! Conductivity {W/m-K}

OS:ComponentCost:LineItem,
  {aee96c1d-28fe-46e5-908e-fb6c1dc38d67}, ! Handle
  90.1 Windows Window Fixed 2636 Vnl-HptMpr-Ins-ClrSpe, ! Name
  ,                                       ! Type
  Construction,                           ! Line Item Type
  90.1 Windows Window Fixed 2636 Vnl-HptMpr-Ins-ClrSpe, ! Item Name
  ,                                       ! Object End Use Key
  ,                                       ! Quantity {dimensionless}
  0,                                      ! Material Cost {$}
  CostPerArea;                            ! Material Cost Units

