
OS:Version,
  {83fa5197-9815-4215-b035-30832afde38c}, ! Handle
  0.9.3;                                  ! Version Identifier

OS:Construction,
  {8e3862fb-1f25-4e57-92d8-1bca5fdbafa1}, ! Handle
  Title 24-2008 Nonres 8 Skylight Plastic Skylight with Curb, ! Name
  ,                                       ! Surface Rendering Name
  {074a20e0-181b-4c66-8b4e-bc6517f4a2e6}; ! Layer 1

OS:WindowMaterial:Glazing,
  {074a20e0-181b-4c66-8b4e-bc6517f4a2e6}, ! Handle
  Theoretical Glass [674],                ! Name
  SpectralAverage,                        ! Optical Data Type
  ,                                       ! Window Glass Spectral Data Set Name
  0.003,                                  ! Thickness {m}
  0.676633,                               ! Solar Transmittance at Normal Incidence
  0.273367,                               ! Front Side Solar Reflectance at Normal Incidence
  0.273367,                               ! Back Side Solar Reflectance at Normal Incidence
  0.689609,                               ! Visible Transmittance at Normal Incidence
  0.260391,                               ! Front Side Visible Reflectance at Normal Incidence
  0.260391,                               ! Back Side Visible Reflectance at Normal Incidence
  0,                                      ! Infrared Transmittance at Normal Incidence
  0.91,                                   ! Front Side Infrared Hemispherical Emissivity
  0.91,                                   ! Back Side Infrared Hemispherical Emissivity
  0.387053;                               ! Conductivity {W/m-K}

OS:ComponentCost:LineItem,
  {c161f428-bb10-42df-a50e-3016b8d49dde}, ! Handle
  Title 24-2008 Nonres 8 Skylight Plastic Skylight with Curb, ! Name
  ,                                       ! Type
  Construction,                           ! Line Item Type
  Title 24-2008 Nonres 8 Skylight Plastic Skylight with Curb, ! Item Name
  ,                                       ! Object End Use Key
  ,                                       ! Quantity {dimensionless}
  480.601,                                ! Material Cost {$}
  CostPerArea;                            ! Material Cost Units

OS:ComponentData,
  {bb3a399f-c750-44b3-a2ef-be4490c522ec}, ! Handle
  Component Data 1,                       ! Name
  {3eccb152-ae8b-4dc0-ab16-be374f101818}, ! UUID
  {9fb62d1e-ced7-486a-8ddb-da0cc4ff7141}, ! Version UUID
  1363982050,                             ! Creation Timestamp
  1363982050,                             ! Version Timestamp
  {8e3862fb-1f25-4e57-92d8-1bca5fdbafa1}, ! Name of Object 1
  {074a20e0-181b-4c66-8b4e-bc6517f4a2e6}, ! Name of Object 2
  {c161f428-bb10-42df-a50e-3016b8d49dde}; ! Name of Object 3

