
OS:Version,
  {2c03593f-d171-42da-95df-c66238814aff}, ! Handle
  0.9.3;                                  ! Version Identifier

OS:ComponentCost:LineItem,
  {99684eb5-3003-4bb4-989c-4292f1f1e905}, ! Handle
  Title 24-2008 Nonres 8 Skylight Plastic Skylight with Curb, ! Name
  ,                                       ! Type
  Construction,                           ! Line Item Type
  Title 24-2008 Nonres 8 Skylight Plastic Skylight with Curb, ! Item Name
  ,                                       ! Object End Use Key
  ,                                       ! Quantity {dimensionless}
  480.601,                                ! Material Cost {$}
  CostPerArea;                            ! Material Cost Units

OS:Construction,
  {1e139442-1a99-4ef3-9923-a5168374ac1e}, ! Handle
  Title 24-2008 Nonres 8 Skylight Plastic Skylight with Curb, ! Name
  ,                                       ! Surface Rendering Name
  {dc973178-dbc6-4aa2-9557-da34c1d8a87f}; ! Layer 1

OS:WindowMaterial:Glazing,
  {dc973178-dbc6-4aa2-9557-da34c1d8a87f}, ! Handle
  Theoretical Glass [674],                ! Name
  SpectralAverage,                        ! Optical Data Type
  ,                                       ! Window Glass Spectral Data Set Name
  0.003,                                  ! Thickness {m}
  0.676633,                               ! Solar Transmittance at Normal Incidence
  0.273367,                               ! Front Side Solar Reflectance at Normal Incidence
  0.273367,                               ! Back Side Solar Reflectance at Normal Incidence
  0.689609,                               ! Visible Transmittance at Normal Incidence
  0.260391,                               ! Front Side Visible Reflectance at Normal Incidence
  0.260391,                               ! Back Side Visible Reflectance at Normal Incidence
  0,                                      ! Infrared Transmittance at Normal Incidence
  0.91,                                   ! Front Side Infrared Hemispherical Emissivity
  0.91,                                   ! Back Side Infrared Hemispherical Emissivity
  0.387053;                               ! Conductivity {W/m-K}

