
OS:Version,
  {0af44629-a18f-4fbe-95ef-be7d7bb02105}, ! Handle
  0.9.3;                                  ! Version Identifier

OS:ComponentCost:LineItem,
  {7816b52e-f8c6-434f-9167-d2d64457ec84}, ! Handle
  90.1-2001 Nonres B25 Ext Wall Mass,     ! Name
  ,                                       ! Type
  Construction,                           ! Line Item Type
  90.1-2001 Nonres B25 Ext Wall Mass,     ! Item Name
  ,                                       ! Object End Use Key
  ,                                       ! Quantity {dimensionless}
  70.253,                                 ! Material Cost {$}
  CostPerArea;                            ! Material Cost Units

OS:Material,
  {e16fb21f-1cd9-416f-914a-697124b165bc}, ! Handle
  Wall Insulation [14],                   ! Name
  MediumRough,                            ! Roughness
  0.0905233,                              ! Thickness {m}
  0.0432,                                 ! Conductivity {W/m-K}
  91,                                     ! Density {kg/m3}
  837,                                    ! Specific Heat {J/kg-K}
  0.9,                                    ! Thermal Absorptance
  0.5,                                    ! Solar Absorptance
  0.5;                                    ! Visible Absorptance

OS:Material,
  {719c1232-8fcc-4f6e-ac9a-78c19abf1ee4}, ! Handle
  8IN Concrete HW,                        ! Name
  MediumRough,                            ! Roughness
  0.2033,                                 ! Thickness {m}
  1.7296,                                 ! Conductivity {W/m-K}
  2243,                                   ! Density {kg/m3}
  837,                                    ! Specific Heat {J/kg-K}
  0.9,                                    ! Thermal Absorptance
  0.65,                                   ! Solar Absorptance
  0.65;                                   ! Visible Absorptance

OS:Construction,
  {cc309107-49db-4309-aac2-0023fb21b27e}, ! Handle
  90.1-2001 Nonres B25 Ext Wall Mass,     ! Name
  ,                                       ! Surface Rendering Name
  {d1385aab-8700-4400-b253-26f9d4118402}, ! Layer 1
  {719c1232-8fcc-4f6e-ac9a-78c19abf1ee4}, ! Layer 2
  {e16fb21f-1cd9-416f-914a-697124b165bc}, ! Layer 3
  {e7ddcda7-1382-4095-9ead-48849dc78ef2}; ! Layer 4

OS:Material,
  {d1385aab-8700-4400-b253-26f9d4118402}, ! Handle
  1IN Stucco,                             ! Name
  Smooth,                                 ! Roughness
  0.0253,                                 ! Thickness {m}
  0.6918,                                 ! Conductivity {W/m-K}
  1858,                                   ! Density {kg/m3}
  837,                                    ! Specific Heat {J/kg-K}
  0.9,                                    ! Thermal Absorptance
  0.92,                                   ! Solar Absorptance
  0.92;                                   ! Visible Absorptance

OS:Material,
  {e7ddcda7-1382-4095-9ead-48849dc78ef2}, ! Handle
  1/2IN Gypsum,                           ! Name
  Smooth,                                 ! Roughness
  0.01271,                                ! Thickness {m}
  0.16,                                   ! Conductivity {W/m-K}
  784.9,                                  ! Density {kg/m3}
  830,                                    ! Specific Heat {J/kg-K}
  0.9,                                    ! Thermal Absorptance
  0.92,                                   ! Solar Absorptance
  0.92;                                   ! Visible Absorptance

