
OS:Version,
  {4f093fd4-25cc-4cf3-9283-5eec323ab4e6}, ! Handle
  0.9.3;                                  ! Version Identifier

OS:Construction,
  {5ac58424-922e-4d4d-bd31-c1134cd4f7c6}, ! Handle
  90.1-1999 Nonres B24 Ext Wall Wood-Framed and Other, ! Name
  ,                                       ! Surface Rendering Name
  {047c946c-6952-4196-833e-bab45e12503d}, ! Layer 1
  {25eac0db-f3f4-4a15-b6b9-d00aa4984012}, ! Layer 2
  {b64f8ce7-14c7-4900-9a96-b0944d442200}; ! Layer 3

OS:Material,
  {047c946c-6952-4196-833e-bab45e12503d}, ! Handle
  Wood Siding,                            ! Name
  MediumSmooth,                           ! Roughness
  0.01,                                   ! Thickness {m}
  0.11,                                   ! Conductivity {W/m-K}
  544.62,                                 ! Density {kg/m3}
  1210,                                   ! Specific Heat {J/kg-K}
  0.9,                                    ! Thermal Absorptance
  0.78,                                   ! Solar Absorptance
  0.78;                                   ! Visible Absorptance

OS:Material,
  {25eac0db-f3f4-4a15-b6b9-d00aa4984012}, ! Handle
  Wall Insulation [13],                   ! Name
  MediumRough,                            ! Roughness
  0.140713,                               ! Thickness {m}
  0.045,                                  ! Conductivity {W/m-K}
  265,                                    ! Density {kg/m3}
  836.8,                                  ! Specific Heat {J/kg-K}
  0.9,                                    ! Thermal Absorptance
  0.7,                                    ! Solar Absorptance
  0.7;                                    ! Visible Absorptance

OS:Material,
  {b64f8ce7-14c7-4900-9a96-b0944d442200}, ! Handle
  1/2IN Gypsum,                           ! Name
  Smooth,                                 ! Roughness
  0.01271,                                ! Thickness {m}
  0.16,                                   ! Conductivity {W/m-K}
  784.9,                                  ! Density {kg/m3}
  830,                                    ! Specific Heat {J/kg-K}
  0.9,                                    ! Thermal Absorptance
  0.92,                                   ! Solar Absorptance
  0.92;                                   ! Visible Absorptance

OS:ComponentCost:LineItem,
  {cafe0e04-819b-4449-a5f1-e9851f370d60}, ! Handle
  90.1-1999 Nonres B24 Ext Wall Wood-Framed and Other, ! Name
  ,                                       ! Type
  Construction,                           ! Line Item Type
  90.1-1999 Nonres B24 Ext Wall Wood-Framed and Other, ! Item Name
  ,                                       ! Object End Use Key
  ,                                       ! Quantity {dimensionless}
  80.638,                                 ! Material Cost {$}
  CostPerArea;                            ! Material Cost Units

OS:ComponentData,
  {ca7305d6-8a07-42ca-a0aa-bd8bceece191}, ! Handle
  Component Data 1,                       ! Name
  {011a561d-e9e0-48fe-8b72-1dfbddc20624}, ! UUID
  {a5229ae2-9457-4ee6-9957-0fe9a96f0404}, ! Version UUID
  1363981148,                             ! Creation Timestamp
  1363981148,                             ! Version Timestamp
  {5ac58424-922e-4d4d-bd31-c1134cd4f7c6}, ! Name of Object 1
  {047c946c-6952-4196-833e-bab45e12503d}, ! Name of Object 2
  {25eac0db-f3f4-4a15-b6b9-d00aa4984012}, ! Name of Object 3
  {b64f8ce7-14c7-4900-9a96-b0944d442200}, ! Name of Object 4
  {cafe0e04-819b-4449-a5f1-e9851f370d60}; ! Name of Object 5

