
OS:Version,
  {fadcba5d-86fb-4b97-801b-ee8ae2719e9d}, ! Handle
  0.9.3;                                  ! Version Identifier

OS:Material,
  {424c92e8-0fc0-481b-bc02-34f67014d369}, ! Handle
  Wall Insulation [13],                   ! Name
  MediumRough,                            ! Roughness
  0.140713,                               ! Thickness {m}
  0.045,                                  ! Conductivity {W/m-K}
  265,                                    ! Density {kg/m3}
  836.8,                                  ! Specific Heat {J/kg-K}
  0.9,                                    ! Thermal Absorptance
  0.7,                                    ! Solar Absorptance
  0.7;                                    ! Visible Absorptance

OS:ComponentCost:LineItem,
  {b835ae24-471f-4f56-ab0e-2b1078fa24e0}, ! Handle
  90.1-1999 Nonres B24 Ext Wall Wood-Framed and Other, ! Name
  ,                                       ! Type
  Construction,                           ! Line Item Type
  90.1-1999 Nonres B24 Ext Wall Wood-Framed and Other, ! Item Name
  ,                                       ! Object End Use Key
  ,                                       ! Quantity {dimensionless}
  80.638,                                 ! Material Cost {$}
  CostPerArea;                            ! Material Cost Units

OS:Material,
  {fdeef7ed-a0ce-4935-b018-fa500d82be06}, ! Handle
  1/2IN Gypsum,                           ! Name
  Smooth,                                 ! Roughness
  0.01271,                                ! Thickness {m}
  0.16,                                   ! Conductivity {W/m-K}
  784.9,                                  ! Density {kg/m3}
  830,                                    ! Specific Heat {J/kg-K}
  0.9,                                    ! Thermal Absorptance
  0.92,                                   ! Solar Absorptance
  0.92;                                   ! Visible Absorptance

OS:Construction,
  {deeb2a68-17b5-4de8-84ad-649a4f41afd2}, ! Handle
  90.1-1999 Nonres B24 Ext Wall Wood-Framed and Other, ! Name
  ,                                       ! Surface Rendering Name
  {9aa1b87a-d40e-4f2f-b06c-57449ce08910}, ! Layer 1
  {424c92e8-0fc0-481b-bc02-34f67014d369}, ! Layer 2
  {fdeef7ed-a0ce-4935-b018-fa500d82be06}; ! Layer 3

OS:Material,
  {9aa1b87a-d40e-4f2f-b06c-57449ce08910}, ! Handle
  Wood Siding,                            ! Name
  MediumSmooth,                           ! Roughness
  0.01,                                   ! Thickness {m}
  0.11,                                   ! Conductivity {W/m-K}
  544.62,                                 ! Density {kg/m3}
  1210,                                   ! Specific Heat {J/kg-K}
  0.9,                                    ! Thermal Absorptance
  0.78,                                   ! Solar Absorptance
  0.78;                                   ! Visible Absorptance

