
OS:Version,
  {f7b70d3a-1aeb-4358-820b-d91a2c894030}, ! Handle
  0.9.3;                                  ! Version Identifier

OS:Construction,
  {3b137696-c423-4c22-a2e8-97cb57f687b6}, ! Handle
  90.1-2007 Nonres 3A Ext Slab Unheated - 8in Slab without Carpet, ! Name
  ,                                       ! Surface Rendering Name
  {64f10028-2f77-4fc5-9076-d2ead5c0f810}; ! Layer 1

OS:Material,
  {64f10028-2f77-4fc5-9076-d2ead5c0f810}, ! Handle
  MAT-CC05 8 HW CONCRETE,                 ! Name
  Rough,                                  ! Roughness
  0.20321,                                ! Thickness {m}
  1.311,                                  ! Conductivity {W/m-K}
  2240,                                   ! Density {kg/m3}
  836.8,                                  ! Specific Heat {J/kg-K}
  0.9,                                    ! Thermal Absorptance
  0.7,                                    ! Solar Absorptance
  0.7;                                    ! Visible Absorptance

OS:ComponentCost:LineItem,
  {15556476-d7f3-4a61-98fc-48c1e38c26e7}, ! Handle
  90.1-2007 Nonres 3A Ext Slab Unheated - 8in Slab without Carpet, ! Name
  ,                                       ! Type
  Construction,                           ! Line Item Type
  90.1-2007 Nonres 3A Ext Slab Unheated - 8in Slab without Carpet, ! Item Name
  ,                                       ! Object End Use Key
  ,                                       ! Quantity {dimensionless}
  45.52,                                  ! Material Cost {$}
  CostPerArea;                            ! Material Cost Units

OS:ComponentData,
  {d867e538-37e6-401f-b273-9ee340bf87c7}, ! Handle
  Component Data 1,                       ! Name
  {92380b24-bdb3-475b-bd14-c30cadcf9063}, ! UUID
  {f39a2c82-78b6-4772-ae2a-9036f10eb95c}, ! Version UUID
  1363981796,                             ! Creation Timestamp
  1363981796,                             ! Version Timestamp
  {3b137696-c423-4c22-a2e8-97cb57f687b6}, ! Name of Object 1
  {64f10028-2f77-4fc5-9076-d2ead5c0f810}, ! Name of Object 2
  {15556476-d7f3-4a61-98fc-48c1e38c26e7}; ! Name of Object 3

