
OS:Version,
  {49b5f6de-9aa0-4702-9c78-27bd8c11bcf6}, ! Handle
  0.9.3;                                  ! Version Identifier

OS:Construction,
  {22146bce-0dbd-4251-bffe-0f3c1dde06e2}, ! Handle
  AEDG-SmOffice 5B Ext Wall Metal Building, ! Name
  ,                                       ! Surface Rendering Name
  {21059016-4c84-4be2-89b2-da2ad8d4e67f}, ! Layer 1
  {e9242841-18d7-4357-9ec6-a4a8806f0d3c}, ! Layer 2
  {66e149f8-cd72-454a-89bc-f1ce025941b9}; ! Layer 3

OS:Material,
  {21059016-4c84-4be2-89b2-da2ad8d4e67f}, ! Handle
  Metal Siding,                           ! Name
  Smooth,                                 ! Roughness
  0.0015,                                 ! Thickness {m}
  44.96,                                  ! Conductivity {W/m-K}
  7688.86,                                ! Density {kg/m3}
  410,                                    ! Specific Heat {J/kg-K}
  0.9,                                    ! Thermal Absorptance
  0.2,                                    ! Solar Absorptance
  0.2;                                    ! Visible Absorptance

OS:Material,
  {e9242841-18d7-4357-9ec6-a4a8806f0d3c}, ! Handle
  Wall Insulation [9],                    ! Name
  MediumRough,                            ! Roughness
  0.128642,                               ! Thickness {m}
  0.045,                                  ! Conductivity {W/m-K}
  265,                                    ! Density {kg/m3}
  836.8,                                  ! Specific Heat {J/kg-K}
  0.9,                                    ! Thermal Absorptance
  0.7,                                    ! Solar Absorptance
  0.7;                                    ! Visible Absorptance

OS:Material,
  {66e149f8-cd72-454a-89bc-f1ce025941b9}, ! Handle
  1/2IN Gypsum,                           ! Name
  Smooth,                                 ! Roughness
  0.01271,                                ! Thickness {m}
  0.16,                                   ! Conductivity {W/m-K}
  784.9,                                  ! Density {kg/m3}
  830,                                    ! Specific Heat {J/kg-K}
  0.9,                                    ! Thermal Absorptance
  0.92,                                   ! Solar Absorptance
  0.92;                                   ! Visible Absorptance

OS:ComponentCost:LineItem,
  {9bfac0db-a2ec-440a-81ee-c4defd1e2f64}, ! Handle
  AEDG-SmOffice 5B Ext Wall Metal Building, ! Name
  ,                                       ! Type
  Construction,                           ! Line Item Type
  AEDG-SmOffice 5B Ext Wall Metal Building, ! Item Name
  ,                                       ! Object End Use Key
  ,                                       ! Quantity {dimensionless}
  107.698,                                ! Material Cost {$}
  CostPerArea;                            ! Material Cost Units

