
OS:Version,
  {2d8c394c-4761-4199-b823-8cbdddd275f0}, ! Handle
  0.9.3;                                  ! Version Identifier

OS:Construction,
  {9d6d48c2-c666-4d33-85a9-27be886bfeee}, ! Handle
  AEDG-SmOffice 5B Ext Wall Metal Building, ! Name
  ,                                       ! Surface Rendering Name
  {17cf424d-aff3-44d1-9c56-d67002030471}, ! Layer 1
  {c1353f6d-c046-4c70-8847-cccb0e6dcba2}, ! Layer 2
  {b91e3cb5-5726-407a-8709-278fc8ddef36}; ! Layer 3

OS:Material,
  {17cf424d-aff3-44d1-9c56-d67002030471}, ! Handle
  Metal Siding,                           ! Name
  Smooth,                                 ! Roughness
  0.0015,                                 ! Thickness {m}
  44.96,                                  ! Conductivity {W/m-K}
  7688.86,                                ! Density {kg/m3}
  410,                                    ! Specific Heat {J/kg-K}
  0.9,                                    ! Thermal Absorptance
  0.2,                                    ! Solar Absorptance
  0.2;                                    ! Visible Absorptance

OS:Material,
  {c1353f6d-c046-4c70-8847-cccb0e6dcba2}, ! Handle
  Wall Insulation [9],                    ! Name
  MediumRough,                            ! Roughness
  0.128642,                               ! Thickness {m}
  0.045,                                  ! Conductivity {W/m-K}
  265,                                    ! Density {kg/m3}
  836.8,                                  ! Specific Heat {J/kg-K}
  0.9,                                    ! Thermal Absorptance
  0.7,                                    ! Solar Absorptance
  0.7;                                    ! Visible Absorptance

OS:Material,
  {b91e3cb5-5726-407a-8709-278fc8ddef36}, ! Handle
  1/2IN Gypsum,                           ! Name
  Smooth,                                 ! Roughness
  0.01271,                                ! Thickness {m}
  0.16,                                   ! Conductivity {W/m-K}
  784.9,                                  ! Density {kg/m3}
  830,                                    ! Specific Heat {J/kg-K}
  0.9,                                    ! Thermal Absorptance
  0.92,                                   ! Solar Absorptance
  0.92;                                   ! Visible Absorptance

OS:ComponentCost:LineItem,
  {ec3275fe-87a3-4696-9730-e496ed45047a}, ! Handle
  AEDG-SmOffice 5B Ext Wall Metal Building, ! Name
  ,                                       ! Type
  Construction,                           ! Line Item Type
  AEDG-SmOffice 5B Ext Wall Metal Building, ! Item Name
  ,                                       ! Object End Use Key
  ,                                       ! Quantity {dimensionless}
  107.698,                                ! Material Cost {$}
  CostPerArea;                            ! Material Cost Units

OS:ComponentData,
  {4a8a3c46-5366-4486-9f40-a25924f6b407}, ! Handle
  Component Data 1,                       ! Name
  {05bdb725-e181-4080-9b31-8bc051bb85f9}, ! UUID
  {8e03bf86-cb0c-4149-8c45-f323e595335d}, ! Version UUID
  1363981954,                             ! Creation Timestamp
  1363981954,                             ! Version Timestamp
  {9d6d48c2-c666-4d33-85a9-27be886bfeee}, ! Name of Object 1
  {17cf424d-aff3-44d1-9c56-d67002030471}, ! Name of Object 2
  {c1353f6d-c046-4c70-8847-cccb0e6dcba2}, ! Name of Object 3
  {b91e3cb5-5726-407a-8709-278fc8ddef36}, ! Name of Object 4
  {ec3275fe-87a3-4696-9730-e496ed45047a}; ! Name of Object 5

