
OS:Version,
  {c1720fe1-1f89-437c-b499-abe59dcae0ce}, ! Handle
  0.9.3;                                  ! Version Identifier

OS:Construction,
  {65f3afbe-0fc9-4f30-9359-d57ec568583a}, ! Handle
  90.1-2001 Nonres B4 Ext Slab Unheated - 8in Slab with Carpet, ! Name
  ,                                       ! Surface Rendering Name
  {b8ac2ea4-fbe0-4a1f-8a03-b1282e2a06bd}, ! Layer 1
  {1b8170b2-f087-4acb-bf24-a60cadae8e40}; ! Layer 2

OS:Material,
  {b8ac2ea4-fbe0-4a1f-8a03-b1282e2a06bd}, ! Handle
  MAT-CC05 8 HW CONCRETE,                 ! Name
  Rough,                                  ! Roughness
  0.20321,                                ! Thickness {m}
  1.311,                                  ! Conductivity {W/m-K}
  2240,                                   ! Density {kg/m3}
  836.8,                                  ! Specific Heat {J/kg-K}
  0.9,                                    ! Thermal Absorptance
  0.7,                                    ! Solar Absorptance
  0.7;                                    ! Visible Absorptance

OS:Material:NoMass,
  {1b8170b2-f087-4acb-bf24-a60cadae8e40}, ! Handle
  CP02 CARPET PAD,                        ! Name
  VeryRough,                              ! Roughness
  0.21648,                                ! Thermal Resistance {m2-K/W}
  0.9,                                    ! Thermal Absorptance
  0.7,                                    ! Solar Absorptance
  0.8;                                    ! Visible Absorptance

OS:ComponentCost:LineItem,
  {52bc6211-b66c-4987-adfc-023505976ee3}, ! Handle
  90.1-2001 Nonres B4 Ext Slab Unheated - 8in Slab with Carpet, ! Name
  ,                                       ! Type
  Construction,                           ! Line Item Type
  90.1-2001 Nonres B4 Ext Slab Unheated - 8in Slab with Carpet, ! Item Name
  ,                                       ! Object End Use Key
  ,                                       ! Quantity {dimensionless}
  45.52,                                  ! Material Cost {$}
  CostPerArea;                            ! Material Cost Units

