
OS:Version,
  {609dc6cb-7148-4fbc-8fee-27666d52d515}, ! Handle
  0.9.3;                                  ! Version Identifier

OS:Material,
  {757c1d7f-66dd-424b-a491-7ba4978c1876}, ! Handle
  1IN Stucco,                             ! Name
  Smooth,                                 ! Roughness
  0.0253,                                 ! Thickness {m}
  0.6918,                                 ! Conductivity {W/m-K}
  1858,                                   ! Density {kg/m3}
  837,                                    ! Specific Heat {J/kg-K}
  0.9,                                    ! Thermal Absorptance
  0.92,                                   ! Solar Absorptance
  0.92;                                   ! Visible Absorptance

OS:Material,
  {b2bc00cb-5a1f-4970-b564-f3701f9d3f05}, ! Handle
  1/2IN Gypsum,                           ! Name
  Smooth,                                 ! Roughness
  0.01271,                                ! Thickness {m}
  0.16,                                   ! Conductivity {W/m-K}
  784.9,                                  ! Density {kg/m3}
  830,                                    ! Specific Heat {J/kg-K}
  0.9,                                    ! Thermal Absorptance
  0.92,                                   ! Solar Absorptance
  0.92;                                   ! Visible Absorptance

OS:ComponentCost:LineItem,
  {9115d628-40ae-42d9-8462-a6063348c97d}, ! Handle
  90.1-1999 Res B7 Ext Wall Mass,         ! Name
  ,                                       ! Type
  Construction,                           ! Line Item Type
  90.1-1999 Res B7 Ext Wall Mass,         ! Item Name
  ,                                       ! Object End Use Key
  ,                                       ! Quantity {dimensionless}
  58.897,                                 ! Material Cost {$}
  CostPerArea;                            ! Material Cost Units

OS:Construction,
  {6c41c8b3-6877-48ed-81be-2c35932f4957}, ! Handle
  90.1-1999 Res B7 Ext Wall Mass,         ! Name
  ,                                       ! Surface Rendering Name
  {757c1d7f-66dd-424b-a491-7ba4978c1876}, ! Layer 1
  {9503a460-ddf0-4808-863a-3e48ba4cb214}, ! Layer 2
  {a788b22b-9a21-4ee4-9253-46f5f2e1beef}, ! Layer 3
  {b2bc00cb-5a1f-4970-b564-f3701f9d3f05}; ! Layer 4

OS:Material,
  {9503a460-ddf0-4808-863a-3e48ba4cb214}, ! Handle
  8IN Concrete HW,                        ! Name
  MediumRough,                            ! Roughness
  0.2033,                                 ! Thickness {m}
  1.7296,                                 ! Conductivity {W/m-K}
  2243,                                   ! Density {kg/m3}
  837,                                    ! Specific Heat {J/kg-K}
  0.9,                                    ! Thermal Absorptance
  0.65,                                   ! Solar Absorptance
  0.65;                                   ! Visible Absorptance

OS:Material,
  {a788b22b-9a21-4ee4-9253-46f5f2e1beef}, ! Handle
  Wall Insulation [4],                    ! Name
  MediumRough,                            ! Roughness
  0.0338606,                              ! Thickness {m}
  0.0432,                                 ! Conductivity {W/m-K}
  91,                                     ! Density {kg/m3}
  837,                                    ! Specific Heat {J/kg-K}
  0.9,                                    ! Thermal Absorptance
  0.5,                                    ! Solar Absorptance
  0.5;                                    ! Visible Absorptance

