
OS:Version,
  {d03aab0b-c0b3-46d2-95bb-d1490d0141a6}, ! Handle
  0.9.3;                                  ! Version Identifier

OS:Construction,
  {0f3f8e23-34b1-427b-872b-05b15bb4c467}, ! Handle
  189.1-2009 Res 4B Window Nonmetal framing, ! Name
  ,                                       ! Surface Rendering Name
  {72a1faf3-836c-4d54-bb1a-afe14f2ed984}; ! Layer 1

OS:WindowMaterial:Glazing,
  {72a1faf3-836c-4d54-bb1a-afe14f2ed984}, ! Handle
  Theoretical Glass [223],                ! Name
  SpectralAverage,                        ! Optical Data Type
  ,                                       ! Window Glass Spectral Data Set Name
  0.003,                                  ! Thickness {m}
  0.378656,                               ! Solar Transmittance at Normal Incidence
  0.571344,                               ! Front Side Solar Reflectance at Normal Incidence
  0.571344,                               ! Back Side Solar Reflectance at Normal Incidence
  0.507883,                               ! Visible Transmittance at Normal Incidence
  0.442117,                               ! Front Side Visible Reflectance at Normal Incidence
  0.442117,                               ! Back Side Visible Reflectance at Normal Incidence
  0,                                      ! Infrared Transmittance at Normal Incidence
  0.9,                                    ! Front Side Infrared Hemispherical Emissivity
  0.9,                                    ! Back Side Infrared Hemispherical Emissivity
  0.0071399;                              ! Conductivity {W/m-K}

OS:ComponentCost:LineItem,
  {df405765-62cf-4a77-9417-ed3ebab0edff}, ! Handle
  189.1-2009 Res 4B Window Nonmetal framing, ! Name
  ,                                       ! Type
  Construction,                           ! Line Item Type
  189.1-2009 Res 4B Window Nonmetal framing, ! Item Name
  ,                                       ! Object End Use Key
  ,                                       ! Quantity {dimensionless}
  512.02,                                 ! Material Cost {$}
  CostPerArea;                            ! Material Cost Units

OS:ComponentData,
  {8eba877d-c7ac-40ae-a080-e191ac827d8d}, ! Handle
  Component Data 1,                       ! Name
  {3eadb503-7a2c-48c5-b786-7c736d6b6b30}, ! UUID
  {dd2560c2-7ca4-46d0-912b-6fcc93975761}, ! Version UUID
  1363980973,                             ! Creation Timestamp
  1363980973,                             ! Version Timestamp
  {0f3f8e23-34b1-427b-872b-05b15bb4c467}, ! Name of Object 1
  {72a1faf3-836c-4d54-bb1a-afe14f2ed984}, ! Name of Object 2
  {df405765-62cf-4a77-9417-ed3ebab0edff}; ! Name of Object 3

