
OS:Version,
  {89096be0-a86e-4d1b-a09e-fdd87a3a669e}, ! Handle
  0.9.3;                                  ! Version Identifier

OS:Construction,
  {5008b63a-b43d-4aab-a78e-742dd0df774c}, ! Handle
  Title 24-2008 Nonres 4 Ext Slab Unheated - 8in Slab with Carpet, ! Name
  ,                                       ! Surface Rendering Name
  {bd8e65c8-6604-4352-8eed-99c4fc7b1456}, ! Layer 1
  {a489ef23-18d1-4047-8935-507f92e48161}; ! Layer 2

OS:Material,
  {bd8e65c8-6604-4352-8eed-99c4fc7b1456}, ! Handle
  MAT-CC05 8 HW CONCRETE,                 ! Name
  Rough,                                  ! Roughness
  0.20321,                                ! Thickness {m}
  1.311,                                  ! Conductivity {W/m-K}
  2240,                                   ! Density {kg/m3}
  836.8,                                  ! Specific Heat {J/kg-K}
  0.9,                                    ! Thermal Absorptance
  0.7,                                    ! Solar Absorptance
  0.7;                                    ! Visible Absorptance

OS:Material:NoMass,
  {a489ef23-18d1-4047-8935-507f92e48161}, ! Handle
  CP02 CARPET PAD,                        ! Name
  VeryRough,                              ! Roughness
  0.21648,                                ! Thermal Resistance {m2-K/W}
  0.9,                                    ! Thermal Absorptance
  0.7,                                    ! Solar Absorptance
  0.8;                                    ! Visible Absorptance

OS:ComponentCost:LineItem,
  {98952b4e-e576-4da8-a0fd-4754916cd3c7}, ! Handle
  Title 24-2008 Nonres 4 Ext Slab Unheated - 8in Slab with Carpet, ! Name
  ,                                       ! Type
  Construction,                           ! Line Item Type
  Title 24-2008 Nonres 4 Ext Slab Unheated - 8in Slab with Carpet, ! Item Name
  ,                                       ! Object End Use Key
  ,                                       ! Quantity {dimensionless}
  45.52,                                  ! Material Cost {$}
  CostPerArea;                            ! Material Cost Units

