
OS:Version,
  {42586a86-c961-4e86-ac42-08569367bd5c}, ! Handle
  0.9.3;                                  ! Version Identifier

OS:Material,
  {0903110a-7c9e-4be8-8b0a-dc50926f9558}, ! Handle
  Roof Insulation [22],                   ! Name
  MediumRough,                            ! Roughness
  0.23578,                                ! Thickness {m}
  0.049,                                  ! Conductivity {W/m-K}
  265,                                    ! Density {kg/m3}
  836.8,                                  ! Specific Heat {J/kg-K}
  0.9,                                    ! Thermal Absorptance
  0.7,                                    ! Solar Absorptance
  0.7;                                    ! Visible Absorptance

OS:Material,
  {a505af0b-540c-444f-afc3-207b76a7bea5}, ! Handle
  Metal Roofing,                          ! Name
  MediumSmooth,                           ! Roughness
  0.001524,                               ! Thickness {m}
  45.006,                                 ! Conductivity {W/m-K}
  7680,                                   ! Density {kg/m3}
  418.4,                                  ! Specific Heat {J/kg-K}
  0.9,                                    ! Thermal Absorptance
  0.7,                                    ! Solar Absorptance
  0.3;                                    ! Visible Absorptance

OS:Construction,
  {43dc1ca1-9ba3-4807-ad4e-9349c78ab1f3}, ! Handle
  189.1-2009 Res 4B Roof Metal Building,  ! Name
  ,                                       ! Surface Rendering Name
  {a505af0b-540c-444f-afc3-207b76a7bea5}, ! Layer 1
  {0903110a-7c9e-4be8-8b0a-dc50926f9558}; ! Layer 2

OS:ComponentCost:LineItem,
  {e44b0b30-fa0a-4342-a89e-9b3eeac5a6f4}, ! Handle
  189.1-2009 Res 4B Roof Metal Building,  ! Name
  ,                                       ! Type
  Construction,                           ! Line Item Type
  189.1-2009 Res 4B Roof Metal Building,  ! Item Name
  ,                                       ! Object End Use Key
  ,                                       ! Quantity {dimensionless}
  47.657,                                 ! Material Cost {$}
  CostPerArea;                            ! Material Cost Units

