
OS:Version,
  {a89b3b44-eeeb-4df5-870a-f262952b0bb6}, ! Handle
  0.9.3;                                  ! Version Identifier

OS:ComponentCost:LineItem,
  {23c676e3-d889-4016-b610-2d3d297649bf}, ! Handle
  90.1-2007 Nonres 3A Window Nonmetal framing, ! Name
  ,                                       ! Type
  Construction,                           ! Line Item Type
  90.1-2007 Nonres 3A Window Nonmetal framing, ! Item Name
  ,                                       ! Object End Use Key
  ,                                       ! Quantity {dimensionless}
  563.991,                                ! Material Cost {$}
  CostPerArea;                            ! Material Cost Units

OS:Construction,
  {24c347f7-7b23-4119-80dc-523b18bcce1d}, ! Handle
  90.1-2007 Nonres 3A Window Nonmetal framing, ! Name
  ,                                       ! Surface Rendering Name
  {3f4d8894-f2ff-4b30-8393-5c7a0b055743}; ! Layer 1

OS:WindowMaterial:Glazing,
  {3f4d8894-f2ff-4b30-8393-5c7a0b055743}, ! Handle
  Theoretical Glass [174],                ! Name
  SpectralAverage,                        ! Optical Data Type
  ,                                       ! Window Glass Spectral Data Set Name
  0.003,                                  ! Thickness {m}
  0.242714,                               ! Solar Transmittance at Normal Incidence
  0.707286,                               ! Front Side Solar Reflectance at Normal Incidence
  0.707286,                               ! Back Side Solar Reflectance at Normal Incidence
  0.319199,                               ! Visible Transmittance at Normal Incidence
  0.630801,                               ! Front Side Visible Reflectance at Normal Incidence
  0.630801,                               ! Back Side Visible Reflectance at Normal Incidence
  0,                                      ! Infrared Transmittance at Normal Incidence
  0.9,                                    ! Front Side Infrared Hemispherical Emissivity
  0.9,                                    ! Back Side Infrared Hemispherical Emissivity
  0.026242;                               ! Conductivity {W/m-K}

