
OS:Version,
  {af79bddb-23a4-47ea-8f89-1e4926e7d522}, ! Handle
  0.9.3;                                  ! Version Identifier

OS:Construction,
  {e3514d71-2686-4214-8293-32bfa66f7258}, ! Handle
  90.1-2007 Nonres 3A Window Nonmetal framing, ! Name
  ,                                       ! Surface Rendering Name
  {d089548c-4961-4645-8319-1957ad2f9f01}; ! Layer 1

OS:WindowMaterial:Glazing,
  {d089548c-4961-4645-8319-1957ad2f9f01}, ! Handle
  Theoretical Glass [174],                ! Name
  SpectralAverage,                        ! Optical Data Type
  ,                                       ! Window Glass Spectral Data Set Name
  0.003,                                  ! Thickness {m}
  0.242714,                               ! Solar Transmittance at Normal Incidence
  0.707286,                               ! Front Side Solar Reflectance at Normal Incidence
  0.707286,                               ! Back Side Solar Reflectance at Normal Incidence
  0.319199,                               ! Visible Transmittance at Normal Incidence
  0.630801,                               ! Front Side Visible Reflectance at Normal Incidence
  0.630801,                               ! Back Side Visible Reflectance at Normal Incidence
  0,                                      ! Infrared Transmittance at Normal Incidence
  0.9,                                    ! Front Side Infrared Hemispherical Emissivity
  0.9,                                    ! Back Side Infrared Hemispherical Emissivity
  0.026242;                               ! Conductivity {W/m-K}

OS:ComponentCost:LineItem,
  {1645ff28-56bd-4c4c-93ed-746bd577d3f8}, ! Handle
  90.1-2007 Nonres 3A Window Nonmetal framing, ! Name
  ,                                       ! Type
  Construction,                           ! Line Item Type
  90.1-2007 Nonres 3A Window Nonmetal framing, ! Item Name
  ,                                       ! Object End Use Key
  ,                                       ! Quantity {dimensionless}
  563.991,                                ! Material Cost {$}
  CostPerArea;                            ! Material Cost Units

OS:ComponentData,
  {a4572b3d-dc17-4b6f-9550-e0d610000c75}, ! Handle
  Component Data 1,                       ! Name
  {d2a30c23-10f4-4f05-802b-1580a4091314}, ! UUID
  {88bafb6c-d05f-42fd-9c7c-89f5b19f4515}, ! Version UUID
  1363981797,                             ! Creation Timestamp
  1363981797,                             ! Version Timestamp
  {e3514d71-2686-4214-8293-32bfa66f7258}, ! Name of Object 1
  {d089548c-4961-4645-8319-1957ad2f9f01}, ! Name of Object 2
  {1645ff28-56bd-4c4c-93ed-746bd577d3f8}; ! Name of Object 3

