
OS:Version,
  {e2d52688-9177-4312-90fb-31ca7c08037f}, ! Handle
  0.9.3;                                  ! Version Identifier

OS:Construction,
  {297db117-ffa9-427a-8dc8-5d293a38315d}, ! Handle
  90.1-2001 Nonres B20 Roof IEAD,         ! Name
  ,                                       ! Surface Rendering Name
  {00fe357b-fef4-498c-b49d-b37bca5bde77}, ! Layer 1
  {01e4bb59-030b-400f-9dca-b4e26fabbff0}, ! Layer 2
  {55aadea3-5428-4837-8ea6-e84a38a6c048}; ! Layer 3

OS:Material,
  {00fe357b-fef4-498c-b49d-b37bca5bde77}, ! Handle
  Roof Membrane,                          ! Name
  VeryRough,                              ! Roughness
  0.0095,                                 ! Thickness {m}
  0.16,                                   ! Conductivity {W/m-K}
  1121.29,                                ! Density {kg/m3}
  1460,                                   ! Specific Heat {J/kg-K}
  0.9,                                    ! Thermal Absorptance
  0.7,                                    ! Solar Absorptance
  0.7;                                    ! Visible Absorptance

OS:Material,
  {01e4bb59-030b-400f-9dca-b4e26fabbff0}, ! Handle
  Roof Insulation,                        ! Name
  MediumRough,                            ! Roughness
  0.124958,                               ! Thickness {m}
  0.049,                                  ! Conductivity {W/m-K}
  265,                                    ! Density {kg/m3}
  836.8,                                  ! Specific Heat {J/kg-K}
  0.9,                                    ! Thermal Absorptance
  0.7,                                    ! Solar Absorptance
  0.7;                                    ! Visible Absorptance

OS:Material,
  {55aadea3-5428-4837-8ea6-e84a38a6c048}, ! Handle
  Metal Decking,                          ! Name
  MediumSmooth,                           ! Roughness
  0.001524,                               ! Thickness {m}
  45.006,                                 ! Conductivity {W/m-K}
  7680,                                   ! Density {kg/m3}
  418.4,                                  ! Specific Heat {J/kg-K}
  0.9,                                    ! Thermal Absorptance
  0.7,                                    ! Solar Absorptance
  0.3;                                    ! Visible Absorptance

OS:ComponentCost:LineItem,
  {da1e5dd7-8360-42b0-8d33-3f5287d9453d}, ! Handle
  90.1-2001 Nonres B20 Roof IEAD,         ! Name
  ,                                       ! Type
  Construction,                           ! Line Item Type
  90.1-2001 Nonres B20 Roof IEAD,         ! Item Name
  ,                                       ! Object End Use Key
  ,                                       ! Quantity {dimensionless}
  49.208,                                 ! Material Cost {$}
  CostPerArea;                            ! Material Cost Units

OS:ComponentData,
  {11b5ebf9-6c49-45d6-a440-26fa8ce346cb}, ! Handle
  Component Data 1,                       ! Name
  {b4583974-49e6-4361-be49-62a0bed36fb8}, ! UUID
  {eecadc01-ed94-400b-9005-68a8ba10f1f3}, ! Version UUID
  1363981398,                             ! Creation Timestamp
  1363981398,                             ! Version Timestamp
  {297db117-ffa9-427a-8dc8-5d293a38315d}, ! Name of Object 1
  {00fe357b-fef4-498c-b49d-b37bca5bde77}, ! Name of Object 2
  {01e4bb59-030b-400f-9dca-b4e26fabbff0}, ! Name of Object 3
  {55aadea3-5428-4837-8ea6-e84a38a6c048}, ! Name of Object 4
  {da1e5dd7-8360-42b0-8d33-3f5287d9453d}; ! Name of Object 5

