
OS:Version,
  {f479b49b-574e-46a2-84ea-cff670af2c51}, ! Handle
  0.9.3;                                  ! Version Identifier

OS:Material,
  {d1282ff2-6a96-487a-96e6-e8cb5ab0541f}, ! Handle
  Metal Decking,                          ! Name
  MediumSmooth,                           ! Roughness
  0.001524,                               ! Thickness {m}
  45.006,                                 ! Conductivity {W/m-K}
  7680,                                   ! Density {kg/m3}
  418.4,                                  ! Specific Heat {J/kg-K}
  0.9,                                    ! Thermal Absorptance
  0.7,                                    ! Solar Absorptance
  0.3;                                    ! Visible Absorptance

OS:Material,
  {5e078941-57ee-46d0-b115-84a51b9796b7}, ! Handle
  Roof Membrane,                          ! Name
  VeryRough,                              ! Roughness
  0.0095,                                 ! Thickness {m}
  0.16,                                   ! Conductivity {W/m-K}
  1121.29,                                ! Density {kg/m3}
  1460,                                   ! Specific Heat {J/kg-K}
  0.9,                                    ! Thermal Absorptance
  0.7,                                    ! Solar Absorptance
  0.7;                                    ! Visible Absorptance

OS:ComponentCost:LineItem,
  {e2eb8479-8fcb-4c5c-a65e-1bb7653715df}, ! Handle
  90.1-2001 Nonres B20 Roof IEAD,         ! Name
  ,                                       ! Type
  Construction,                           ! Line Item Type
  90.1-2001 Nonres B20 Roof IEAD,         ! Item Name
  ,                                       ! Object End Use Key
  ,                                       ! Quantity {dimensionless}
  49.208,                                 ! Material Cost {$}
  CostPerArea;                            ! Material Cost Units

OS:Material,
  {6ad5b19a-a3ee-4469-b5b7-85317550f3c4}, ! Handle
  Roof Insulation,                        ! Name
  MediumRough,                            ! Roughness
  0.124958,                               ! Thickness {m}
  0.049,                                  ! Conductivity {W/m-K}
  265,                                    ! Density {kg/m3}
  836.8,                                  ! Specific Heat {J/kg-K}
  0.9,                                    ! Thermal Absorptance
  0.7,                                    ! Solar Absorptance
  0.7;                                    ! Visible Absorptance

OS:Construction,
  {06d7baa6-ad52-42d7-aeee-2271038aa953}, ! Handle
  90.1-2001 Nonres B20 Roof IEAD,         ! Name
  ,                                       ! Surface Rendering Name
  {5e078941-57ee-46d0-b115-84a51b9796b7}, ! Layer 1
  {6ad5b19a-a3ee-4469-b5b7-85317550f3c4}, ! Layer 2
  {d1282ff2-6a96-487a-96e6-e8cb5ab0541f}; ! Layer 3

