
! 
OS:Version,
  {9c37d538-db0d-4a47-9850-5bede7e76bd5}, !- Handle
  1.13.0;                                 !- Version Identifier


! {"nombreProductoCorto": "CLIMALIT PLUS con PLANITHERM 4S  F2 6 (16 argon90%) 4", "codigoEAN": "", "handle": "0cc6d82c-9915-4569-a723-625c43ab8bd7", "g": 0.42, "tV": 0.65, "u": 1.0, "nombreProducto": "CLIMALIT PLUS con PLANITHERM 4S  F2 6 (16 argon90%) 4\nU:1.0 W/m2K - g:0.42 - Tv: 0.65"}
OS:WindowMaterial:SimpleGlazingSystem,
  {0cc6d82c-9915-4569-a723-625c43ab8bd7}, !- Handle
  CLIMALIT PLUS con PLANITHERM 4S  F2 6 (16 argon90%) 4, !- Name
  1.0,                                    !- U-Factor {W/m2-K}
  0.42,                                    !- Solar Heat Gain Coefficient
  0.65;                                    !- Visible Transmittance     
  
  
OS:Construction,
  {75329460-93eb-4059-9d76-2a1751be47a0}, !- Handle
  CLIMALIT PLUS con PLANITHERM 4S  F2 6 (16 argon90%) 4,                         !- Name
  ,                                       !- Surface Rendering Name
  {0cc6d82c-9915-4569-a723-625c43ab8bd7}; !- Layer 1  

