
OS:Version,
  {a306dbaa-e938-4ff8-9981-484841b87ad3}, ! Handle
  0.9.3;                                  ! Version Identifier

OS:ComponentCost:LineItem,
  {32a6ab5b-eb84-4cec-b769-72fd0dd1b868}, ! Handle
  90.1-2001 Res B5 Skylight without Curb, ! Name
  ,                                       ! Type
  Construction,                           ! Line Item Type
  90.1-2001 Res B5 Skylight without Curb, ! Item Name
  ,                                       ! Object End Use Key
  ,                                       ! Quantity {dimensionless}
  539.136,                                ! Material Cost {$}
  CostPerArea;                            ! Material Cost Units

OS:Construction,
  {880aea52-dae0-43d2-b937-8b653339285c}, ! Handle
  90.1-2001 Res B5 Skylight without Curb, ! Name
  ,                                       ! Surface Rendering Name
  {24a7ce0b-63ad-4205-95f6-3b57aaee998d}; ! Layer 1

OS:WindowMaterial:Glazing,
  {24a7ce0b-63ad-4205-95f6-3b57aaee998d}, ! Handle
  Theoretical Glass [63],                 ! Name
  SpectralAverage,                        ! Optical Data Type
  ,                                       ! Window Glass Spectral Data Set Name
  0.003,                                  ! Thickness {m}
  0.177255,                               ! Solar Transmittance at Normal Incidence
  0.772745,                               ! Front Side Solar Reflectance at Normal Incidence
  0.772745,                               ! Back Side Solar Reflectance at Normal Incidence
  0.176052,                               ! Visible Transmittance at Normal Incidence
  0.773948,                               ! Front Side Visible Reflectance at Normal Incidence
  0.773948,                               ! Back Side Visible Reflectance at Normal Incidence
  0,                                      ! Infrared Transmittance at Normal Incidence
  0.999,                                  ! Front Side Infrared Hemispherical Emissivity
  0.999,                                  ! Back Side Infrared Hemispherical Emissivity
  72.7123;                                ! Conductivity {W/m-K}

