
OS:Version,
  {716a6ef5-9001-45ac-8839-fe87a12fc8e3}, ! Handle
  0.9.3;                                  ! Version Identifier

OS:Construction,
  {cf0e6bac-84ed-4110-bc0a-621d735d526a}, ! Handle
  90.1-2004 Nonres 2A Roof IEAD,          ! Name
  ,                                       ! Surface Rendering Name
  {36944c31-d058-4d11-9cab-78850c881148}, ! Layer 1
  {e804cd77-f78f-425e-9276-213dd4c16fa3}, ! Layer 2
  {d83b44e6-d1fb-4fc0-a8ba-ab87bf85f52b}; ! Layer 3

OS:Material,
  {36944c31-d058-4d11-9cab-78850c881148}, ! Handle
  Roof Membrane,                          ! Name
  VeryRough,                              ! Roughness
  0.0095,                                 ! Thickness {m}
  0.16,                                   ! Conductivity {W/m-K}
  1121.29,                                ! Density {kg/m3}
  1460,                                   ! Specific Heat {J/kg-K}
  0.9,                                    ! Thermal Absorptance
  0.7,                                    ! Solar Absorptance
  0.7;                                    ! Visible Absorptance

OS:Material,
  {e804cd77-f78f-425e-9276-213dd4c16fa3}, ! Handle
  Roof Insulation,                        ! Name
  MediumRough,                            ! Roughness
  0.124958,                               ! Thickness {m}
  0.049,                                  ! Conductivity {W/m-K}
  265,                                    ! Density {kg/m3}
  836.8,                                  ! Specific Heat {J/kg-K}
  0.9,                                    ! Thermal Absorptance
  0.7,                                    ! Solar Absorptance
  0.7;                                    ! Visible Absorptance

OS:Material,
  {d83b44e6-d1fb-4fc0-a8ba-ab87bf85f52b}, ! Handle
  Metal Decking,                          ! Name
  MediumSmooth,                           ! Roughness
  0.001524,                               ! Thickness {m}
  45.006,                                 ! Conductivity {W/m-K}
  7680,                                   ! Density {kg/m3}
  418.4,                                  ! Specific Heat {J/kg-K}
  0.9,                                    ! Thermal Absorptance
  0.7,                                    ! Solar Absorptance
  0.3;                                    ! Visible Absorptance

OS:ComponentCost:LineItem,
  {32736fa0-ba77-4904-81db-9c9d719a9cc4}, ! Handle
  90.1-2004 Nonres 2A Roof IEAD,          ! Name
  ,                                       ! Type
  Construction,                           ! Line Item Type
  90.1-2004 Nonres 2A Roof IEAD,          ! Item Name
  ,                                       ! Object End Use Key
  ,                                       ! Quantity {dimensionless}
  49.208,                                 ! Material Cost {$}
  CostPerArea;                            ! Material Cost Units

OS:ComponentData,
  {29de5a5c-e972-483c-8bcd-1bf0166fb0f1}, ! Handle
  Component Data 1,                       ! Name
  {60aa7da0-d8e0-4f70-b3a9-2073a7674751}, ! UUID
  {990171af-a2ea-47aa-ba28-c0f97641a8e8}, ! Version UUID
  1363981635,                             ! Creation Timestamp
  1363981635,                             ! Version Timestamp
  {cf0e6bac-84ed-4110-bc0a-621d735d526a}, ! Name of Object 1
  {36944c31-d058-4d11-9cab-78850c881148}, ! Name of Object 2
  {e804cd77-f78f-425e-9276-213dd4c16fa3}, ! Name of Object 3
  {d83b44e6-d1fb-4fc0-a8ba-ab87bf85f52b}, ! Name of Object 4
  {32736fa0-ba77-4904-81db-9c9d719a9cc4}; ! Name of Object 5

