
OS:Version,
  {a361680c-ac5d-46f7-86b5-bd76f403afa3}, ! Handle
  0.9.3;                                  ! Version Identifier

OS:Material,
  {a037ce52-6bad-4cb1-98b4-82af852693ad}, ! Handle
  Roof Membrane,                          ! Name
  VeryRough,                              ! Roughness
  0.0095,                                 ! Thickness {m}
  0.16,                                   ! Conductivity {W/m-K}
  1121.29,                                ! Density {kg/m3}
  1460,                                   ! Specific Heat {J/kg-K}
  0.9,                                    ! Thermal Absorptance
  0.7,                                    ! Solar Absorptance
  0.7;                                    ! Visible Absorptance

OS:Construction,
  {acaca030-f8b2-4d60-a3d6-4b3be0f374f3}, ! Handle
  90.1-2004 Nonres 2A Roof IEAD,          ! Name
  ,                                       ! Surface Rendering Name
  {a037ce52-6bad-4cb1-98b4-82af852693ad}, ! Layer 1
  {b3b0e404-8dfc-4008-b575-a842fa2d256a}, ! Layer 2
  {49bbb051-6c74-431f-9051-9e500cc6ac0a}; ! Layer 3

OS:Material,
  {b3b0e404-8dfc-4008-b575-a842fa2d256a}, ! Handle
  Roof Insulation,                        ! Name
  MediumRough,                            ! Roughness
  0.124958,                               ! Thickness {m}
  0.049,                                  ! Conductivity {W/m-K}
  265,                                    ! Density {kg/m3}
  836.8,                                  ! Specific Heat {J/kg-K}
  0.9,                                    ! Thermal Absorptance
  0.7,                                    ! Solar Absorptance
  0.7;                                    ! Visible Absorptance

OS:Material,
  {49bbb051-6c74-431f-9051-9e500cc6ac0a}, ! Handle
  Metal Decking,                          ! Name
  MediumSmooth,                           ! Roughness
  0.001524,                               ! Thickness {m}
  45.006,                                 ! Conductivity {W/m-K}
  7680,                                   ! Density {kg/m3}
  418.4,                                  ! Specific Heat {J/kg-K}
  0.9,                                    ! Thermal Absorptance
  0.7,                                    ! Solar Absorptance
  0.3;                                    ! Visible Absorptance

OS:ComponentCost:LineItem,
  {3e6bc8cf-9010-469b-b7a7-edf7eafb00ef}, ! Handle
  90.1-2004 Nonres 2A Roof IEAD,          ! Name
  ,                                       ! Type
  Construction,                           ! Line Item Type
  90.1-2004 Nonres 2A Roof IEAD,          ! Item Name
  ,                                       ! Object End Use Key
  ,                                       ! Quantity {dimensionless}
  49.208,                                 ! Material Cost {$}
  CostPerArea;                            ! Material Cost Units

