
OS:Version,
  {3baf74c9-f288-49cb-8fde-38c7eb8ca9b5}, ! Handle
  0.9.3;                                  ! Version Identifier

OS:Construction,
  {37e17c67-f892-4a8f-90e0-f6e1caf01de6}, ! Handle
  90.1-2007 Nonres 1A Skylight without Curb, ! Name
  ,                                       ! Surface Rendering Name
  {417d2c22-eda0-42f7-99e4-cf76bf836c5c}; ! Layer 1

OS:WindowMaterial:Glazing,
  {417d2c22-eda0-42f7-99e4-cf76bf836c5c}, ! Handle
  Theoretical Glass [168],                ! Name
  SpectralAverage,                        ! Optical Data Type
  ,                                       ! Window Glass Spectral Data Set Name
  0.003,                                  ! Thickness {m}
  0.346104,                               ! Solar Transmittance at Normal Incidence
  0.603896,                               ! Front Side Solar Reflectance at Normal Incidence
  0.603896,                               ! Back Side Solar Reflectance at Normal Incidence
  0.457336,                               ! Visible Transmittance at Normal Incidence
  0.492664,                               ! Front Side Visible Reflectance at Normal Incidence
  0.492664,                               ! Back Side Visible Reflectance at Normal Incidence
  0,                                      ! Infrared Transmittance at Normal Incidence
  0.999,                                  ! Front Side Infrared Hemispherical Emissivity
  0.999,                                  ! Back Side Infrared Hemispherical Emissivity
  296.427;                                ! Conductivity {W/m-K}

OS:ComponentCost:LineItem,
  {6d4402de-3f85-4a03-8399-a981cce067a2}, ! Handle
  90.1-2007 Nonres 1A Skylight without Curb, ! Name
  ,                                       ! Type
  Construction,                           ! Line Item Type
  90.1-2007 Nonres 1A Skylight without Curb, ! Item Name
  ,                                       ! Object End Use Key
  ,                                       ! Quantity {dimensionless}
  498.248,                                ! Material Cost {$}
  CostPerArea;                            ! Material Cost Units

OS:ComponentData,
  {bbab8c24-4b9f-4309-87a2-d4673052c30d}, ! Handle
  Component Data 1,                       ! Name
  {0b5fc8e1-f87a-4e35-9e98-3540741ed669}, ! UUID
  {1a13484d-baaf-4bb9-9db2-f520b15aa12e}, ! Version UUID
  1363981780,                             ! Creation Timestamp
  1363981780,                             ! Version Timestamp
  {37e17c67-f892-4a8f-90e0-f6e1caf01de6}, ! Name of Object 1
  {417d2c22-eda0-42f7-99e4-cf76bf836c5c}, ! Name of Object 2
  {6d4402de-3f85-4a03-8399-a981cce067a2}; ! Name of Object 3

