
OS:Version,
  {f501cce4-150a-42aa-ac06-5ee69a6b2718}, ! Handle
  0.9.3;                                  ! Version Identifier

OS:WindowMaterial:Glazing,
  {bc030132-9a14-4a24-8a5a-6eb8421a91ee}, ! Handle
  Theoretical Glass [168],                ! Name
  SpectralAverage,                        ! Optical Data Type
  ,                                       ! Window Glass Spectral Data Set Name
  0.003,                                  ! Thickness {m}
  0.346104,                               ! Solar Transmittance at Normal Incidence
  0.603896,                               ! Front Side Solar Reflectance at Normal Incidence
  0.603896,                               ! Back Side Solar Reflectance at Normal Incidence
  0.457336,                               ! Visible Transmittance at Normal Incidence
  0.492664,                               ! Front Side Visible Reflectance at Normal Incidence
  0.492664,                               ! Back Side Visible Reflectance at Normal Incidence
  0,                                      ! Infrared Transmittance at Normal Incidence
  0.999,                                  ! Front Side Infrared Hemispherical Emissivity
  0.999,                                  ! Back Side Infrared Hemispherical Emissivity
  296.427;                                ! Conductivity {W/m-K}

OS:ComponentCost:LineItem,
  {4fc62c23-c348-46f7-98de-b5b7349822be}, ! Handle
  90.1-2007 Nonres 1A Skylight without Curb, ! Name
  ,                                       ! Type
  Construction,                           ! Line Item Type
  90.1-2007 Nonres 1A Skylight without Curb, ! Item Name
  ,                                       ! Object End Use Key
  ,                                       ! Quantity {dimensionless}
  498.248,                                ! Material Cost {$}
  CostPerArea;                            ! Material Cost Units

OS:Construction,
  {95a748d4-730d-4944-9472-e656e9309d0c}, ! Handle
  90.1-2007 Nonres 1A Skylight without Curb, ! Name
  ,                                       ! Surface Rendering Name
  {bc030132-9a14-4a24-8a5a-6eb8421a91ee}; ! Layer 1

