
OS:Version,
  {1fe81a26-1c2c-436e-ae10-75f05cd157d4}, ! Handle
  0.9.3;                                  ! Version Identifier

OS:Construction,
  {03d19ff7-602c-4aa4-a794-2cacc357916b}, ! Handle
  90.1-2007 Nonres 4B Ext Wall Metal Building, ! Name
  ,                                       ! Surface Rendering Name
  {84c08db4-1b9f-4871-b9e7-06a49bbd41e8}, ! Layer 1
  {b6f0ae4f-273f-460b-aac7-cfc356cb5149}, ! Layer 2
  {483be08e-43aa-44a7-9f2b-84f056a305fc}; ! Layer 3

OS:Material,
  {84c08db4-1b9f-4871-b9e7-06a49bbd41e8}, ! Handle
  Metal Siding,                           ! Name
  Smooth,                                 ! Roughness
  0.0015,                                 ! Thickness {m}
  44.96,                                  ! Conductivity {W/m-K}
  7688.86,                                ! Density {kg/m3}
  410,                                    ! Specific Heat {J/kg-K}
  0.9,                                    ! Thermal Absorptance
  0.2,                                    ! Solar Absorptance
  0.2;                                    ! Visible Absorptance

OS:Material,
  {b6f0ae4f-273f-460b-aac7-cfc356cb5149}, ! Handle
  Wall Insulation,                        ! Name
  MediumRough,                            ! Roughness
  0.0598725,                              ! Thickness {m}
  0.045,                                  ! Conductivity {W/m-K}
  265,                                    ! Density {kg/m3}
  836.8,                                  ! Specific Heat {J/kg-K}
  0.9,                                    ! Thermal Absorptance
  0.7,                                    ! Solar Absorptance
  0.7;                                    ! Visible Absorptance

OS:Material,
  {483be08e-43aa-44a7-9f2b-84f056a305fc}, ! Handle
  1/2IN Gypsum,                           ! Name
  Smooth,                                 ! Roughness
  0.01271,                                ! Thickness {m}
  0.16,                                   ! Conductivity {W/m-K}
  784.9,                                  ! Density {kg/m3}
  830,                                    ! Specific Heat {J/kg-K}
  0.9,                                    ! Thermal Absorptance
  0.92,                                   ! Solar Absorptance
  0.92;                                   ! Visible Absorptance

OS:ComponentCost:LineItem,
  {a2014086-fd3f-4b2f-9eae-67d57ae06ebd}, ! Handle
  90.1-2007 Nonres 4B Ext Wall Metal Building, ! Name
  ,                                       ! Type
  Construction,                           ! Line Item Type
  90.1-2007 Nonres 4B Ext Wall Metal Building, ! Item Name
  ,                                       ! Object End Use Key
  ,                                       ! Quantity {dimensionless}
  98.78,                                  ! Material Cost {$}
  CostPerArea;                            ! Material Cost Units

