
OS:Version,
  {d53302cd-56e8-4bb0-95b7-e21d61ada487}, ! Handle
  0.9.3;                                  ! Version Identifier

OS:Construction,
  {f7e1b16e-bef0-4595-9ef4-7ce5c0010944}, ! Handle
  90.1-2007 Res 3A Window Metal framing entrance door, ! Name
  ,                                       ! Surface Rendering Name
  {87958146-ccd9-4bd3-b4b0-09edbf1632d2}; ! Layer 1

OS:WindowMaterial:Glazing,
  {87958146-ccd9-4bd3-b4b0-09edbf1632d2}, ! Handle
  Theoretical Glass [176],                ! Name
  SpectralAverage,                        ! Optical Data Type
  ,                                       ! Window Glass Spectral Data Set Name
  0.003,                                  ! Thickness {m}
  0.240609,                               ! Solar Transmittance at Normal Incidence
  0.709391,                               ! Front Side Solar Reflectance at Normal Incidence
  0.709391,                               ! Back Side Solar Reflectance at Normal Incidence
  0.319199,                               ! Visible Transmittance at Normal Incidence
  0.630801,                               ! Front Side Visible Reflectance at Normal Incidence
  0.630801,                               ! Back Side Visible Reflectance at Normal Incidence
  0,                                      ! Infrared Transmittance at Normal Incidence
  0.9,                                    ! Front Side Infrared Hemispherical Emissivity
  0.9,                                    ! Back Side Infrared Hemispherical Emissivity
  0.0711841;                              ! Conductivity {W/m-K}

OS:ComponentCost:LineItem,
  {ed3e78c9-9580-4e99-b88c-53c1b2fd5771}, ! Handle
  90.1-2007 Res 3A Window Metal framing entrance door, ! Name
  ,                                       ! Type
  Construction,                           ! Line Item Type
  90.1-2007 Res 3A Window Metal framing entrance door, ! Item Name
  ,                                       ! Object End Use Key
  ,                                       ! Quantity {dimensionless}
  563.991,                                ! Material Cost {$}
  CostPerArea;                            ! Material Cost Units

OS:ComponentData,
  {779918b9-52a6-4c86-af5b-848effbdbb32}, ! Handle
  Component Data 1,                       ! Name
  {1bfe075b-8693-4326-a0ee-0a1be21f9357}, ! UUID
  {b0e5fb1e-23be-45b8-a8e2-d12298f24bd7}, ! Version UUID
  1363981849,                             ! Creation Timestamp
  1363981849,                             ! Version Timestamp
  {f7e1b16e-bef0-4595-9ef4-7ce5c0010944}, ! Name of Object 1
  {87958146-ccd9-4bd3-b4b0-09edbf1632d2}, ! Name of Object 2
  {ed3e78c9-9580-4e99-b88c-53c1b2fd5771}; ! Name of Object 3

