
OS:Version,
  {3743bfee-b6a9-4720-8aea-39375d3fa2bd}, ! Handle
  0.9.3;                                  ! Version Identifier

OS:WindowMaterial:Glazing,
  {f8008070-9aee-4aad-bec2-fa8ead419779}, ! Handle
  Theoretical Glass [176],                ! Name
  SpectralAverage,                        ! Optical Data Type
  ,                                       ! Window Glass Spectral Data Set Name
  0.003,                                  ! Thickness {m}
  0.240609,                               ! Solar Transmittance at Normal Incidence
  0.709391,                               ! Front Side Solar Reflectance at Normal Incidence
  0.709391,                               ! Back Side Solar Reflectance at Normal Incidence
  0.319199,                               ! Visible Transmittance at Normal Incidence
  0.630801,                               ! Front Side Visible Reflectance at Normal Incidence
  0.630801,                               ! Back Side Visible Reflectance at Normal Incidence
  0,                                      ! Infrared Transmittance at Normal Incidence
  0.9,                                    ! Front Side Infrared Hemispherical Emissivity
  0.9,                                    ! Back Side Infrared Hemispherical Emissivity
  0.0711841;                              ! Conductivity {W/m-K}

OS:ComponentCost:LineItem,
  {82bd146c-578c-4dd9-9c7b-08524db0174d}, ! Handle
  90.1-2007 Res 3A Window Metal framing entrance door, ! Name
  ,                                       ! Type
  Construction,                           ! Line Item Type
  90.1-2007 Res 3A Window Metal framing entrance door, ! Item Name
  ,                                       ! Object End Use Key
  ,                                       ! Quantity {dimensionless}
  563.991,                                ! Material Cost {$}
  CostPerArea;                            ! Material Cost Units

OS:Construction,
  {2cce28f2-97b4-4265-9ca5-1899dc61a1f5}, ! Handle
  90.1-2007 Res 3A Window Metal framing entrance door, ! Name
  ,                                       ! Surface Rendering Name
  {f8008070-9aee-4aad-bec2-fa8ead419779}; ! Layer 1

