
OS:Version,
  {7f6e3cf5-88a8-4438-84fe-f875a8931bf0}, ! Handle
  0.9.3;                                  ! Version Identifier

OS:Construction,
  {625e1d86-268b-4fc6-bb1a-769e90b0a1cc}, ! Handle
  90.1-2001 Nonres B17 Roof Metal Building, ! Name
  ,                                       ! Surface Rendering Name
  {5cb4122a-65f4-4e75-a87a-08bcd7689454}, ! Layer 1
  {e181d8d2-7a98-44aa-ace9-5acd143c5db3}; ! Layer 2

OS:Material,
  {5cb4122a-65f4-4e75-a87a-08bcd7689454}, ! Handle
  Metal Roofing,                          ! Name
  MediumSmooth,                           ! Roughness
  0.001524,                               ! Thickness {m}
  45.006,                                 ! Conductivity {W/m-K}
  7680,                                   ! Density {kg/m3}
  418.4,                                  ! Specific Heat {J/kg-K}
  0.9,                                    ! Thermal Absorptance
  0.7,                                    ! Solar Absorptance
  0.3;                                    ! Visible Absorptance

OS:Material,
  {e181d8d2-7a98-44aa-ace9-5acd143c5db3}, ! Handle
  Roof Insulation [1],                    ! Name
  MediumRough,                            ! Roughness
  0.123533,                               ! Thickness {m}
  0.049,                                  ! Conductivity {W/m-K}
  265,                                    ! Density {kg/m3}
  836.8,                                  ! Specific Heat {J/kg-K}
  0.9,                                    ! Thermal Absorptance
  0.7,                                    ! Solar Absorptance
  0.7;                                    ! Visible Absorptance

OS:ComponentCost:LineItem,
  {e3932dc4-3164-4341-8cb3-e6444ac2dad7}, ! Handle
  90.1-2001 Nonres B17 Roof Metal Building, ! Name
  ,                                       ! Type
  Construction,                           ! Line Item Type
  90.1-2001 Nonres B17 Roof Metal Building, ! Item Name
  ,                                       ! Object End Use Key
  ,                                       ! Quantity {dimensionless}
  38.206,                                 ! Material Cost {$}
  CostPerArea;                            ! Material Cost Units

