
OS:Version,
  {7d8eb12f-575d-437f-a406-1ad3a85294d0}, ! Handle
  0.9.3;                                  ! Version Identifier

OS:Construction,
  {85c3a0e3-6e95-47b4-90b7-4360d0abe415}, ! Handle
  90.1-2001 Nonres B17 Roof Metal Building, ! Name
  ,                                       ! Surface Rendering Name
  {890daed9-844a-4d6c-bc81-ed1bb8417e63}, ! Layer 1
  {7f51b547-0a06-499a-858a-e9656d8214bf}; ! Layer 2

OS:Material,
  {890daed9-844a-4d6c-bc81-ed1bb8417e63}, ! Handle
  Metal Roofing,                          ! Name
  MediumSmooth,                           ! Roughness
  0.001524,                               ! Thickness {m}
  45.006,                                 ! Conductivity {W/m-K}
  7680,                                   ! Density {kg/m3}
  418.4,                                  ! Specific Heat {J/kg-K}
  0.9,                                    ! Thermal Absorptance
  0.7,                                    ! Solar Absorptance
  0.3;                                    ! Visible Absorptance

OS:Material,
  {7f51b547-0a06-499a-858a-e9656d8214bf}, ! Handle
  Roof Insulation [1],                    ! Name
  MediumRough,                            ! Roughness
  0.123533,                               ! Thickness {m}
  0.049,                                  ! Conductivity {W/m-K}
  265,                                    ! Density {kg/m3}
  836.8,                                  ! Specific Heat {J/kg-K}
  0.9,                                    ! Thermal Absorptance
  0.7,                                    ! Solar Absorptance
  0.7;                                    ! Visible Absorptance

OS:ComponentCost:LineItem,
  {01e9f9c9-9b71-45f9-aecf-b796f07f8291}, ! Handle
  90.1-2001 Nonres B17 Roof Metal Building, ! Name
  ,                                       ! Type
  Construction,                           ! Line Item Type
  90.1-2001 Nonres B17 Roof Metal Building, ! Item Name
  ,                                       ! Object End Use Key
  ,                                       ! Quantity {dimensionless}
  38.206,                                 ! Material Cost {$}
  CostPerArea;                            ! Material Cost Units

OS:ComponentData,
  {b260e176-c917-4385-96d4-2d08764c9e51}, ! Handle
  Component Data 1,                       ! Name
  {fc621970-dc4f-4880-9ecb-1bc75bb2b4c1}, ! UUID
  {53d0c225-f4ac-4d22-a35a-24fac8352fbb}, ! Version UUID
  1363981380,                             ! Creation Timestamp
  1363981380,                             ! Version Timestamp
  {85c3a0e3-6e95-47b4-90b7-4360d0abe415}, ! Name of Object 1
  {890daed9-844a-4d6c-bc81-ed1bb8417e63}, ! Name of Object 2
  {7f51b547-0a06-499a-858a-e9656d8214bf}, ! Name of Object 3
  {01e9f9c9-9b71-45f9-aecf-b796f07f8291}; ! Name of Object 4

