
OS:Version,
  {5ffaa621-f512-4cb8-aad0-47ec287d21c1}, ! Handle
  0.9.3;                                  ! Version Identifier

OS:Material,
  {da7e0668-0507-452a-939c-32e246893c29}, ! Handle
  MAT-CC05 8 HW CONCRETE,                 ! Name
  Rough,                                  ! Roughness
  0.20321,                                ! Thickness {m}
  1.311,                                  ! Conductivity {W/m-K}
  2240,                                   ! Density {kg/m3}
  836.8,                                  ! Specific Heat {J/kg-K}
  0.9,                                    ! Thermal Absorptance
  0.7,                                    ! Solar Absorptance
  0.7;                                    ! Visible Absorptance

OS:ComponentCost:LineItem,
  {6d197db4-dcf8-47fd-9a7a-94688fa8f46a}, ! Handle
  90.1-1999 Res B19 Ext Slab Unheated - 8in Slab with Carpet, ! Name
  ,                                       ! Type
  Construction,                           ! Line Item Type
  90.1-1999 Res B19 Ext Slab Unheated - 8in Slab with Carpet, ! Item Name
  ,                                       ! Object End Use Key
  ,                                       ! Quantity {dimensionless}
  45.52,                                  ! Material Cost {$}
  CostPerArea;                            ! Material Cost Units

OS:Construction,
  {1d489b2a-2898-4a5a-b3da-119f1dbf82f3}, ! Handle
  90.1-1999 Res B19 Ext Slab Unheated - 8in Slab with Carpet, ! Name
  ,                                       ! Surface Rendering Name
  {da7e0668-0507-452a-939c-32e246893c29}, ! Layer 1
  {5e47be61-0481-4ee4-9018-20b420c92520}; ! Layer 2

OS:Material:NoMass,
  {5e47be61-0481-4ee4-9018-20b420c92520}, ! Handle
  CP02 CARPET PAD,                        ! Name
  VeryRough,                              ! Roughness
  0.21648,                                ! Thermal Resistance {m2-K/W}
  0.9,                                    ! Thermal Absorptance
  0.7,                                    ! Solar Absorptance
  0.8;                                    ! Visible Absorptance

