
OS:Version,
  {c03eb3b9-7e93-4260-a5ca-f0097fb0f5e8}, ! Handle
  0.9.3;                                  ! Version Identifier

OS:Construction,
  {0f5aae17-29a5-4eda-b322-d9f9288b8146}, ! Handle
  90.1-2001 Nonres B24 Skylight without Curb, ! Name
  ,                                       ! Surface Rendering Name
  {044ddcf9-e166-4f33-94eb-fc5118582ff3}; ! Layer 1

OS:WindowMaterial:Glazing,
  {044ddcf9-e166-4f33-94eb-fc5118582ff3}, ! Handle
  Theoretical Glass [45],                 ! Name
  SpectralAverage,                        ! Optical Data Type
  ,                                       ! Window Glass Spectral Data Set Name
  0.003,                                  ! Thickness {m}
  0.482092,                               ! Solar Transmittance at Normal Incidence
  0.467908,                               ! Front Side Solar Reflectance at Normal Incidence
  0.467908,                               ! Back Side Solar Reflectance at Normal Incidence
  0.529698,                               ! Visible Transmittance at Normal Incidence
  0.420302,                               ! Front Side Visible Reflectance at Normal Incidence
  0.420302,                               ! Back Side Visible Reflectance at Normal Incidence
  0,                                      ! Infrared Transmittance at Normal Incidence
  0.9,                                    ! Front Side Infrared Hemispherical Emissivity
  0.9,                                    ! Back Side Infrared Hemispherical Emissivity
  0.0205762;                              ! Conductivity {W/m-K}

OS:ComponentCost:LineItem,
  {351d7e9a-4e05-4d9a-93d5-e4ba4a9235c1}, ! Handle
  90.1-2001 Nonres B24 Skylight without Curb, ! Name
  ,                                       ! Type
  Construction,                           ! Line Item Type
  90.1-2001 Nonres B24 Skylight without Curb, ! Item Name
  ,                                       ! Object End Use Key
  ,                                       ! Quantity {dimensionless}
  524.932,                                ! Material Cost {$}
  CostPerArea;                            ! Material Cost Units

OS:ComponentData,
  {cd352c7a-5d24-4604-8cda-118418e4f9ce}, ! Handle
  Component Data 1,                       ! Name
  {c688cb7c-22db-4c75-a4a7-f9e22a862ba0}, ! UUID
  {9945388d-4bcc-48e9-aec3-87fd0ae87022}, ! Version UUID
  1363981430,                             ! Creation Timestamp
  1363981430,                             ! Version Timestamp
  {0f5aae17-29a5-4eda-b322-d9f9288b8146}, ! Name of Object 1
  {044ddcf9-e166-4f33-94eb-fc5118582ff3}, ! Name of Object 2
  {351d7e9a-4e05-4d9a-93d5-e4ba4a9235c1}; ! Name of Object 3

