
OS:Version,
  {8961b88c-95e1-48f4-89eb-a3b39a4cd456}, ! Handle
  0.9.3;                                  ! Version Identifier

OS:WindowMaterial:Glazing,
  {f0cb682f-1bdf-4368-bb09-5dd2fd70f110}, ! Handle
  Theoretical Glass [45],                 ! Name
  SpectralAverage,                        ! Optical Data Type
  ,                                       ! Window Glass Spectral Data Set Name
  0.003,                                  ! Thickness {m}
  0.482092,                               ! Solar Transmittance at Normal Incidence
  0.467908,                               ! Front Side Solar Reflectance at Normal Incidence
  0.467908,                               ! Back Side Solar Reflectance at Normal Incidence
  0.529698,                               ! Visible Transmittance at Normal Incidence
  0.420302,                               ! Front Side Visible Reflectance at Normal Incidence
  0.420302,                               ! Back Side Visible Reflectance at Normal Incidence
  0,                                      ! Infrared Transmittance at Normal Incidence
  0.9,                                    ! Front Side Infrared Hemispherical Emissivity
  0.9,                                    ! Back Side Infrared Hemispherical Emissivity
  0.0205762;                              ! Conductivity {W/m-K}

OS:Construction,
  {6bac7b0e-4883-425e-af52-1acff4029ecc}, ! Handle
  90.1-2001 Nonres B24 Skylight without Curb, ! Name
  ,                                       ! Surface Rendering Name
  {f0cb682f-1bdf-4368-bb09-5dd2fd70f110}; ! Layer 1

OS:ComponentCost:LineItem,
  {ed257860-1da4-4e0b-8971-b51f0d5ac2e7}, ! Handle
  90.1-2001 Nonres B24 Skylight without Curb, ! Name
  ,                                       ! Type
  Construction,                           ! Line Item Type
  90.1-2001 Nonres B24 Skylight without Curb, ! Item Name
  ,                                       ! Object End Use Key
  ,                                       ! Quantity {dimensionless}
  524.932,                                ! Material Cost {$}
  CostPerArea;                            ! Material Cost Units

