
OS:Version,
  {c072f74c-1477-476e-850d-f14f160346e7}, ! Handle
  0.9.3;                                  ! Version Identifier

OS:Construction,
  {0464e453-b851-493b-a2d0-0cbf550b7b16}, ! Handle
  90.1-2001 Nonres B7 Roof Metal Building, ! Name
  ,                                       ! Surface Rendering Name
  {98b6eb6d-2371-42a5-a00f-0d9a6151bc4b}, ! Layer 1
  {8cbde1e6-7f32-4a25-a4b4-f95c74e5a47b}; ! Layer 2

OS:Material,
  {98b6eb6d-2371-42a5-a00f-0d9a6151bc4b}, ! Handle
  Metal Roofing,                          ! Name
  MediumSmooth,                           ! Roughness
  0.001524,                               ! Thickness {m}
  45.006,                                 ! Conductivity {W/m-K}
  7680,                                   ! Density {kg/m3}
  418.4,                                  ! Specific Heat {J/kg-K}
  0.9,                                    ! Thermal Absorptance
  0.7,                                    ! Solar Absorptance
  0.3;                                    ! Visible Absorptance

OS:Material,
  {8cbde1e6-7f32-4a25-a4b4-f95c74e5a47b}, ! Handle
  Roof Insulation [4],                    ! Name
  MediumRough,                            ! Roughness
  0.110636,                               ! Thickness {m}
  0.049,                                  ! Conductivity {W/m-K}
  265,                                    ! Density {kg/m3}
  836.8,                                  ! Specific Heat {J/kg-K}
  0.9,                                    ! Thermal Absorptance
  0.7,                                    ! Solar Absorptance
  0.7;                                    ! Visible Absorptance

OS:ComponentCost:LineItem,
  {511ec54d-8eae-4412-a528-4939cb950690}, ! Handle
  90.1-2001 Nonres B7 Roof Metal Building, ! Name
  ,                                       ! Type
  Construction,                           ! Line Item Type
  90.1-2001 Nonres B7 Roof Metal Building, ! Item Name
  ,                                       ! Object End Use Key
  ,                                       ! Quantity {dimensionless}
  37.342,                                 ! Material Cost {$}
  CostPerArea;                            ! Material Cost Units

