
OS:Version,
  {d1abf91f-3bce-419c-8d16-d1a156597b08}, ! Handle
  0.9.3;                                  ! Version Identifier

OS:ComponentCost:LineItem,
  {0d387d1c-5a5a-401d-851a-9dc55dedf67d}, ! Handle
  90.1-2001 Res B20 Int Wall,             ! Name
  ,                                       ! Type
  Construction,                           ! Line Item Type
  90.1-2001 Res B20 Int Wall,             ! Item Name
  ,                                       ! Object End Use Key
  ,                                       ! Quantity {dimensionless}
  0,                                      ! Material Cost {$}
  CostPerArea;                            ! Material Cost Units

OS:Construction,
  {e76c91db-7e80-45c7-8260-39029ec05c38}, ! Handle
  90.1-2001 Res B20 Int Wall,             ! Name
  ,                                       ! Surface Rendering Name
  {8f402a4d-dae7-4daa-a16f-2ac4db3a5fe3}, ! Layer 1
  {8f402a4d-dae7-4daa-a16f-2ac4db3a5fe3}; ! Layer 2

OS:Material,
  {8f402a4d-dae7-4daa-a16f-2ac4db3a5fe3}, ! Handle
  GP01 1/2 GYPSUM,                        ! Name
  Smooth,                                 ! Roughness
  0.01271,                                ! Thickness {m}
  0.16,                                   ! Conductivity {W/m-K}
  800,                                    ! Density {kg/m3}
  1090,                                   ! Specific Heat {J/kg-K}
  0.9,                                    ! Thermal Absorptance
  0.7,                                    ! Solar Absorptance
  0.5;                                    ! Visible Absorptance

OS:Material,
  {ceaecb66-b5a9-4ecf-9c26-3a4b8561d583}, ! Handle
  GP01 1/2 GYPSUM 1,                      ! Name
  Smooth,                                 ! Roughness
  0.01271,                                ! Thickness {m}
  0.16,                                   ! Conductivity {W/m-K}
  800,                                    ! Density {kg/m3}
  1090,                                   ! Specific Heat {J/kg-K}
  0.9,                                    ! Thermal Absorptance
  0.7,                                    ! Solar Absorptance
  0.5;                                    ! Visible Absorptance

