
OS:Version,
  {63d1fe5f-8700-4efa-a99f-97e60f721e4b}, ! Handle
  0.9.3;                                  ! Version Identifier

OS:Construction,
  {6e58f09f-f18d-4f0a-8b7f-fa8eac22d299}, ! Handle
  189.1-2009 Nonres 2A Ext Wall Mass,     ! Name
  ,                                       ! Surface Rendering Name
  {b7eddf21-2428-4554-9ea9-512e011c7ffd}, ! Layer 1
  {c23e5719-9979-4fc8-9440-4041bd6623b8}, ! Layer 2
  {26eb6419-13a0-4e50-9bb4-1abc7795f4a9}, ! Layer 3
  {89d1c8f0-028e-4d90-9bd1-e067309e842a}; ! Layer 4

OS:Material,
  {b7eddf21-2428-4554-9ea9-512e011c7ffd}, ! Handle
  1IN Stucco,                             ! Name
  Smooth,                                 ! Roughness
  0.0253,                                 ! Thickness {m}
  0.6918,                                 ! Conductivity {W/m-K}
  1858,                                   ! Density {kg/m3}
  837,                                    ! Specific Heat {J/kg-K}
  0.9,                                    ! Thermal Absorptance
  0.92,                                   ! Solar Absorptance
  0.92;                                   ! Visible Absorptance

OS:Material,
  {c23e5719-9979-4fc8-9440-4041bd6623b8}, ! Handle
  8IN Concrete HW,                        ! Name
  MediumRough,                            ! Roughness
  0.2033,                                 ! Thickness {m}
  1.7296,                                 ! Conductivity {W/m-K}
  2243,                                   ! Density {kg/m3}
  837,                                    ! Specific Heat {J/kg-K}
  0.9,                                    ! Thermal Absorptance
  0.65,                                   ! Solar Absorptance
  0.65;                                   ! Visible Absorptance

OS:Material,
  {26eb6419-13a0-4e50-9bb4-1abc7795f4a9}, ! Handle
  Wall Insulation [35],                   ! Name
  MediumRough,                            ! Roughness
  0.0451909,                              ! Thickness {m}
  0.0432,                                 ! Conductivity {W/m-K}
  91,                                     ! Density {kg/m3}
  837,                                    ! Specific Heat {J/kg-K}
  0.9,                                    ! Thermal Absorptance
  0.5,                                    ! Solar Absorptance
  0.5;                                    ! Visible Absorptance

OS:Material,
  {89d1c8f0-028e-4d90-9bd1-e067309e842a}, ! Handle
  1/2IN Gypsum,                           ! Name
  Smooth,                                 ! Roughness
  0.01271,                                ! Thickness {m}
  0.16,                                   ! Conductivity {W/m-K}
  784.9,                                  ! Density {kg/m3}
  830,                                    ! Specific Heat {J/kg-K}
  0.9,                                    ! Thermal Absorptance
  0.92,                                   ! Solar Absorptance
  0.92;                                   ! Visible Absorptance

OS:ComponentCost:LineItem,
  {0b544f46-4b68-43e1-bc1e-c76658716271}, ! Handle
  189.1-2009 Nonres 2A Ext Wall Mass,     ! Name
  ,                                       ! Type
  Construction,                           ! Line Item Type
  189.1-2009 Nonres 2A Ext Wall Mass,     ! Item Name
  ,                                       ! Object End Use Key
  ,                                       ! Quantity {dimensionless}
  61.384,                                 ! Material Cost {$}
  CostPerArea;                            ! Material Cost Units

