
OS:Version,
  {17e98273-89fc-40e3-9515-34a441055714}, ! Handle
  0.9.3;                                  ! Version Identifier

OS:Material:NoMass,
  {be1636da-0ce3-4a5b-bd3a-585daa28f860}, ! Handle
  CP02 CARPET PAD,                        ! Name
  VeryRough,                              ! Roughness
  0.21648,                                ! Thermal Resistance {m2-K/W}
  0.9,                                    ! Thermal Absorptance
  0.7,                                    ! Solar Absorptance
  0.8;                                    ! Visible Absorptance

OS:Material,
  {9e29582b-eab4-41cd-bf99-100b189fa746}, ! Handle
  MAT-CC05 8 HW CONCRETE,                 ! Name
  Rough,                                  ! Roughness
  0.20321,                                ! Thickness {m}
  1.311,                                  ! Conductivity {W/m-K}
  2240,                                   ! Density {kg/m3}
  836.8,                                  ! Specific Heat {J/kg-K}
  0.9,                                    ! Thermal Absorptance
  0.7,                                    ! Solar Absorptance
  0.7;                                    ! Visible Absorptance

OS:Construction,
  {7129f5f4-3e45-4196-aac9-6d68a51f6597}, ! Handle
  90.1-2004 Res 6B Ext Slab Unheated - 8in Slab with Carpet, ! Name
  ,                                       ! Surface Rendering Name
  {9e29582b-eab4-41cd-bf99-100b189fa746}, ! Layer 1
  {be1636da-0ce3-4a5b-bd3a-585daa28f860}; ! Layer 2

OS:ComponentCost:LineItem,
  {ee8c3994-6197-4c5c-bd76-c7003d980acd}, ! Handle
  90.1-2004 Res 6B Ext Slab Unheated - 8in Slab with Carpet, ! Name
  ,                                       ! Type
  Construction,                           ! Line Item Type
  90.1-2004 Res 6B Ext Slab Unheated - 8in Slab with Carpet, ! Item Name
  ,                                       ! Object End Use Key
  ,                                       ! Quantity {dimensionless}
  45.52,                                  ! Material Cost {$}
  CostPerArea;                            ! Material Cost Units

