
OS:Version,
  {89d2f831-9d3c-472f-8809-86278d0a1729}, ! Handle
  0.9.3;                                  ! Version Identifier

OS:Material,
  {74b39181-aeb5-4bb9-9f6c-0ede784849e4}, ! Handle
  Roof Insulation [1],                    ! Name
  MediumRough,                            ! Roughness
  0.123533,                               ! Thickness {m}
  0.049,                                  ! Conductivity {W/m-K}
  265,                                    ! Density {kg/m3}
  836.8,                                  ! Specific Heat {J/kg-K}
  0.9,                                    ! Thermal Absorptance
  0.7,                                    ! Solar Absorptance
  0.7;                                    ! Visible Absorptance

OS:ComponentCost:LineItem,
  {ce7c933d-bc5b-4bc3-8556-4cbddb7b8e8d}, ! Handle
  90.1-2004 Nonres 1A Roof Metal Building, ! Name
  ,                                       ! Type
  Construction,                           ! Line Item Type
  90.1-2004 Nonres 1A Roof Metal Building, ! Item Name
  ,                                       ! Object End Use Key
  ,                                       ! Quantity {dimensionless}
  38.206,                                 ! Material Cost {$}
  CostPerArea;                            ! Material Cost Units

OS:Material,
  {e88dc62c-7adc-4633-9f8a-dcccc53c93f1}, ! Handle
  Metal Roofing,                          ! Name
  MediumSmooth,                           ! Roughness
  0.001524,                               ! Thickness {m}
  45.006,                                 ! Conductivity {W/m-K}
  7680,                                   ! Density {kg/m3}
  418.4,                                  ! Specific Heat {J/kg-K}
  0.9,                                    ! Thermal Absorptance
  0.7,                                    ! Solar Absorptance
  0.3;                                    ! Visible Absorptance

OS:Construction,
  {ef9bbb33-5193-4d16-91f7-40bf8437b2b1}, ! Handle
  90.1-2004 Nonres 1A Roof Metal Building, ! Name
  ,                                       ! Surface Rendering Name
  {e88dc62c-7adc-4633-9f8a-dcccc53c93f1}, ! Layer 1
  {74b39181-aeb5-4bb9-9f6c-0ede784849e4}; ! Layer 2

