
OS:Version,
  {c04308bf-8b0b-441b-964e-a3a5ba1f6a90}, ! Handle
  0.9.3;                                  ! Version Identifier

OS:Construction,
  {94d7750b-d591-429a-b0ae-9584fc598d6e}, ! Handle
  90.1-2007 Res 7A Ext Wall Steel-Framed, ! Name
  ,                                       ! Surface Rendering Name
  {0c5326fb-8649-47e9-8570-f1bb1cce8bd8}, ! Layer 1
  {f7429806-e4d9-4711-b78d-93f5af64c0d2}, ! Layer 2
  {8bf4f9e1-9903-4ad0-9def-b386608b084c}; ! Layer 3

OS:Material:NoMass,
  {0c5326fb-8649-47e9-8570-f1bb1cce8bd8}, ! Handle
  MAT-SHEATH,                             ! Name
  Rough,                                  ! Roughness
  0.36256,                                ! Thermal Resistance {m2-K/W}
  0.9,                                    ! Thermal Absorptance
  0.7,                                    ! Solar Absorptance
  0.7;                                    ! Visible Absorptance

OS:Material,
  {f7429806-e4d9-4711-b78d-93f5af64c0d2}, ! Handle
  Wall Insulation [28],                   ! Name
  MediumRough,                            ! Roughness
  0.162212,                               ! Thickness {m}
  0.045,                                  ! Conductivity {W/m-K}
  265,                                    ! Density {kg/m3}
  836.8,                                  ! Specific Heat {J/kg-K}
  0.9,                                    ! Thermal Absorptance
  0.7,                                    ! Solar Absorptance
  0.7;                                    ! Visible Absorptance

OS:Material,
  {8bf4f9e1-9903-4ad0-9def-b386608b084c}, ! Handle
  1/2IN Gypsum,                           ! Name
  Smooth,                                 ! Roughness
  0.01271,                                ! Thickness {m}
  0.16,                                   ! Conductivity {W/m-K}
  784.9,                                  ! Density {kg/m3}
  830,                                    ! Specific Heat {J/kg-K}
  0.9,                                    ! Thermal Absorptance
  0.92,                                   ! Solar Absorptance
  0.92;                                   ! Visible Absorptance

OS:ComponentCost:LineItem,
  {3ef0e8a1-f7ec-443d-8b1e-6dab4a7408c2}, ! Handle
  90.1-2007 Res 7A Ext Wall Steel-Framed, ! Name
  ,                                       ! Type
  Construction,                           ! Line Item Type
  90.1-2007 Res 7A Ext Wall Steel-Framed, ! Item Name
  ,                                       ! Object End Use Key
  ,                                       ! Quantity {dimensionless}
  101.677,                                ! Material Cost {$}
  CostPerArea;                            ! Material Cost Units

OS:ComponentData,
  {1ccb83cd-448d-43ef-812f-10bf8a7779d8}, ! Handle
  Component Data 1,                       ! Name
  {8cc81be2-076d-45cb-a9ac-a956bc0f903d}, ! UUID
  {db01b9ac-de8f-49dd-82f9-1cdce04b3c0a}, ! Version UUID
  1363981871,                             ! Creation Timestamp
  1363981871,                             ! Version Timestamp
  {94d7750b-d591-429a-b0ae-9584fc598d6e}, ! Name of Object 1
  {0c5326fb-8649-47e9-8570-f1bb1cce8bd8}, ! Name of Object 2
  {f7429806-e4d9-4711-b78d-93f5af64c0d2}, ! Name of Object 3
  {8bf4f9e1-9903-4ad0-9def-b386608b084c}, ! Name of Object 4
  {3ef0e8a1-f7ec-443d-8b1e-6dab4a7408c2}; ! Name of Object 5

