 
OS:Version,
  {bc46c828-cef4-11e7-abc4-cec278b6b50a}, !- Handle
  1.14.0;                                 !- Version Identifier

OS:Material,
  {bc471d6e-cef4-11e7-abc4-cec278b6b50a}, ! Handle
  Gips-Kalk Innenputz 1.5cm,              ! Name
  Smooth,                                 ! Roughness
  0.015,                                  ! Thickness {m}
  0.7 ,                                   ! Conductivity {W/m-K}
  1100,                                   ! Density {kg/m3}
  1010,                                   ! Specific Heat {J/kg-K}
  0.3,                                    ! Thermal Absorptance
  0.3,                                    ! Solar Absorptance
  0.3;                                    ! Visible Absorptance

OS:Material,
  {bc471e72-cef4-11e7-abc4-cec278b6b50a}, ! Handle
  Naturstein 70cm,                        ! Name
  Smooth,                                 ! Roughness
  0.7,                                    ! Thickness {m}
  0.55,                                   ! Conductivity {W/m-K}
  1800,                                   ! Density {kg/m3}
  1000,                                   ! Specific Heat {J/kg-K}
  0.7,                                    ! Thermal Absorptance
  0.7,                                    ! Solar Absorptance
  0.7;                                    ! Visible Absorptance

OS:Construction,
  {bc471bde-cef4-11e7-abc4-cec278b6b50a}, ! Handle
  U-W DE MFH ExtWall -1918 9,             ! Name
  ,                                       ! Surface Rendering Name
  {bc471e72-cef4-11e7-abc4-cec278b6b50a}, ! Layer 2
  {bc471d6e-cef4-11e7-abc4-cec278b6b50a}; ! Layer 3


