
OS:Version,
  {12fd8457-f96a-45ea-8e0d-38957b0226f2}, ! Handle
  0.9.3;                                  ! Version Identifier

OS:ComponentCost:LineItem,
  {20008c90-ab74-4268-8a2b-05b6eaadb4e2}, ! Handle
  90.1-2007 Nonres 2A Ext Wall Mass,      ! Name
  ,                                       ! Type
  Construction,                           ! Line Item Type
  90.1-2007 Nonres 2A Ext Wall Mass,      ! Item Name
  ,                                       ! Object End Use Key
  ,                                       ! Quantity {dimensionless}
  58.897,                                 ! Material Cost {$}
  CostPerArea;                            ! Material Cost Units

OS:Material,
  {cbe93151-04c8-4f04-8e39-54a2c399a019}, ! Handle
  8IN Concrete HW,                        ! Name
  MediumRough,                            ! Roughness
  0.2033,                                 ! Thickness {m}
  1.7296,                                 ! Conductivity {W/m-K}
  2243,                                   ! Density {kg/m3}
  837,                                    ! Specific Heat {J/kg-K}
  0.9,                                    ! Thermal Absorptance
  0.65,                                   ! Solar Absorptance
  0.65;                                   ! Visible Absorptance

OS:Material,
  {f901efe0-b7d7-42f7-9270-4c21dde8d666}, ! Handle
  1/2IN Gypsum,                           ! Name
  Smooth,                                 ! Roughness
  0.01271,                                ! Thickness {m}
  0.16,                                   ! Conductivity {W/m-K}
  784.9,                                  ! Density {kg/m3}
  830,                                    ! Specific Heat {J/kg-K}
  0.9,                                    ! Thermal Absorptance
  0.92,                                   ! Solar Absorptance
  0.92;                                   ! Visible Absorptance

OS:Material,
  {be9ef60b-08c3-4a87-981e-9635d89d7640}, ! Handle
  Wall Insulation [4],                    ! Name
  MediumRough,                            ! Roughness
  0.0338606,                              ! Thickness {m}
  0.0432,                                 ! Conductivity {W/m-K}
  91,                                     ! Density {kg/m3}
  837,                                    ! Specific Heat {J/kg-K}
  0.9,                                    ! Thermal Absorptance
  0.5,                                    ! Solar Absorptance
  0.5;                                    ! Visible Absorptance

OS:Construction,
  {d55adb66-487c-44f2-b0f7-4a4973d21f3e}, ! Handle
  90.1-2007 Nonres 2A Ext Wall Mass,      ! Name
  ,                                       ! Surface Rendering Name
  {cbddbfbf-268f-4f9d-8b81-ae56695d8c0d}, ! Layer 1
  {cbe93151-04c8-4f04-8e39-54a2c399a019}, ! Layer 2
  {be9ef60b-08c3-4a87-981e-9635d89d7640}, ! Layer 3
  {f901efe0-b7d7-42f7-9270-4c21dde8d666}; ! Layer 4

OS:Material,
  {cbddbfbf-268f-4f9d-8b81-ae56695d8c0d}, ! Handle
  1IN Stucco,                             ! Name
  Smooth,                                 ! Roughness
  0.0253,                                 ! Thickness {m}
  0.6918,                                 ! Conductivity {W/m-K}
  1858,                                   ! Density {kg/m3}
  837,                                    ! Specific Heat {J/kg-K}
  0.9,                                    ! Thermal Absorptance
  0.92,                                   ! Solar Absorptance
  0.92;                                   ! Visible Absorptance

