
OS:Version,
  {99bce54f-b773-4f8a-bdd1-461d58d4606c}, ! Handle
  0.9.3;                                  ! Version Identifier

OS:Construction,
  {f979960b-e910-4b31-b959-13010f9b31cb}, ! Handle
  90.1-2001 Res B8 Ext Slab Unheated - 4in Slab without Carpet, ! Name
  ,                                       ! Surface Rendering Name
  {95de0716-1322-48fa-9f15-dbacdbe99425}; ! Layer 1

OS:Material,
  {95de0716-1322-48fa-9f15-dbacdbe99425}, ! Handle
  MAT-CC05 4 HW CONCRETE,                 ! Name
  Rough,                                  ! Roughness
  0.1016,                                 ! Thickness {m}
  1.311,                                  ! Conductivity {W/m-K}
  2240,                                   ! Density {kg/m3}
  836.8,                                  ! Specific Heat {J/kg-K}
  0.9,                                    ! Thermal Absorptance
  0.7,                                    ! Solar Absorptance
  0.7;                                    ! Visible Absorptance

OS:ComponentCost:LineItem,
  {23576dde-048d-47c1-866d-1c5b44b2880d}, ! Handle
  90.1-2001 Res B8 Ext Slab Unheated - 4in Slab without Carpet, ! Name
  ,                                       ! Type
  Construction,                           ! Line Item Type
  90.1-2001 Res B8 Ext Slab Unheated - 4in Slab without Carpet, ! Item Name
  ,                                       ! Object End Use Key
  ,                                       ! Quantity {dimensionless}
  45.52,                                  ! Material Cost {$}
  CostPerArea;                            ! Material Cost Units

OS:ComponentData,
  {cd2dcd56-4a18-47c6-a45b-f88706007b33}, ! Handle
  Component Data 1,                       ! Name
  {cdd7fd45-7cd2-4047-af72-5115498fd0e7}, ! UUID
  {7ad89d25-a3d7-440e-beb6-4d6a1d172a58}, ! Version UUID
  1363981490,                             ! Creation Timestamp
  1363981490,                             ! Version Timestamp
  {f979960b-e910-4b31-b959-13010f9b31cb}, ! Name of Object 1
  {95de0716-1322-48fa-9f15-dbacdbe99425}, ! Name of Object 2
  {23576dde-048d-47c1-866d-1c5b44b2880d}; ! Name of Object 3

