
OS:Version,
  {881e236e-eac2-4392-bdeb-cb667f8e4a87}, ! Handle
  0.9.3;                                  ! Version Identifier

OS:Material:NoMass,
  {f6694425-d6bc-428a-b5e4-6c6287c525bf}, ! Handle
  CP02 CARPET PAD,                        ! Name
  VeryRough,                              ! Roughness
  0.21648,                                ! Thermal Resistance {m2-K/W}
  0.9,                                    ! Thermal Absorptance
  0.7,                                    ! Solar Absorptance
  0.8;                                    ! Visible Absorptance

OS:Material,
  {a4118083-b36b-4422-99ab-f4e4a7c8da19}, ! Handle
  Floor Insulation,                       ! Name
  MediumRough,                            ! Roughness
  0.0302276,                              ! Thickness {m}
  0.045,                                  ! Conductivity {W/m-K}
  265,                                    ! Density {kg/m3}
  836.8,                                  ! Specific Heat {J/kg-K}
  0.9,                                    ! Thermal Absorptance
  0.7,                                    ! Solar Absorptance
  0.7;                                    ! Visible Absorptance

OS:Construction,
  {82cfa4f2-f658-4def-8695-8614121e3162}, ! Handle
  90.1-2004 Nonres 2A Exposed Floor Mass, ! Name
  ,                                       ! Surface Rendering Name
  {a4118083-b36b-4422-99ab-f4e4a7c8da19}, ! Layer 1
  {01d9cb67-98d3-48a3-aee9-8271b9662192}, ! Layer 2
  {f6694425-d6bc-428a-b5e4-6c6287c525bf}; ! Layer 3

OS:Material,
  {01d9cb67-98d3-48a3-aee9-8271b9662192}, ! Handle
  MAT-CC05 8 HW CONCRETE,                 ! Name
  Rough,                                  ! Roughness
  0.20321,                                ! Thickness {m}
  1.311,                                  ! Conductivity {W/m-K}
  2240,                                   ! Density {kg/m3}
  836.8,                                  ! Specific Heat {J/kg-K}
  0.9,                                    ! Thermal Absorptance
  0.7,                                    ! Solar Absorptance
  0.7;                                    ! Visible Absorptance

OS:ComponentCost:LineItem,
  {d443dfde-cf80-416e-8439-916727e30f43}, ! Handle
  90.1-2004 Nonres 2A Exposed Floor Mass, ! Name
  ,                                       ! Type
  Construction,                           ! Line Item Type
  90.1-2004 Nonres 2A Exposed Floor Mass, ! Item Name
  ,                                       ! Object End Use Key
  ,                                       ! Quantity {dimensionless}
  44.965,                                 ! Material Cost {$}
  CostPerArea;                            ! Material Cost Units

