
OS:Version,
  {8d59e6a2-52f5-4c54-91f3-b3a1201ebdb8}, ! Handle
  0.9.3;                                  ! Version Identifier

OS:Construction,
  {39e048c2-60ec-46f5-af42-6da2211bc04a}, ! Handle
  189.1-2009 Nonres 5B Exposed Floor Mass, ! Name
  ,                                       ! Surface Rendering Name
  {0f5f4f07-f902-4799-ae24-2635b7378858}, ! Layer 1
  {75cb1672-26be-4622-99d4-08c6d1be678f}, ! Layer 2
  {2522b1ca-3bed-4cdd-a44e-67b668d05b5d}; ! Layer 3

OS:Material,
  {0f5f4f07-f902-4799-ae24-2635b7378858}, ! Handle
  Floor Insulation [9],                   ! Name
  MediumRough,                            ! Roughness
  0.097281,                               ! Thickness {m}
  0.045,                                  ! Conductivity {W/m-K}
  265,                                    ! Density {kg/m3}
  836.8,                                  ! Specific Heat {J/kg-K}
  0.9,                                    ! Thermal Absorptance
  0.7,                                    ! Solar Absorptance
  0.7;                                    ! Visible Absorptance

OS:Material,
  {75cb1672-26be-4622-99d4-08c6d1be678f}, ! Handle
  MAT-CC05 8 HW CONCRETE,                 ! Name
  Rough,                                  ! Roughness
  0.20321,                                ! Thickness {m}
  1.311,                                  ! Conductivity {W/m-K}
  2240,                                   ! Density {kg/m3}
  836.8,                                  ! Specific Heat {J/kg-K}
  0.9,                                    ! Thermal Absorptance
  0.7,                                    ! Solar Absorptance
  0.7;                                    ! Visible Absorptance

OS:Material:NoMass,
  {2522b1ca-3bed-4cdd-a44e-67b668d05b5d}, ! Handle
  CP02 CARPET PAD,                        ! Name
  VeryRough,                              ! Roughness
  0.21648,                                ! Thermal Resistance {m2-K/W}
  0.9,                                    ! Thermal Absorptance
  0.7,                                    ! Solar Absorptance
  0.8;                                    ! Visible Absorptance

OS:ComponentCost:LineItem,
  {023f5c72-90a7-470e-a02c-2c6572a20d3b}, ! Handle
  189.1-2009 Nonres 5B Exposed Floor Mass, ! Name
  ,                                       ! Type
  Construction,                           ! Line Item Type
  189.1-2009 Nonres 5B Exposed Floor Mass, ! Item Name
  ,                                       ! Object End Use Key
  ,                                       ! Quantity {dimensionless}
  54.312,                                 ! Material Cost {$}
  CostPerArea;                            ! Material Cost Units

