
OS:Version,
  {606b6471-4e69-4005-81d4-be0bd380897c}, ! Handle
  0.9.3;                                  ! Version Identifier

OS:Construction,
  {8bfbc82a-7269-4884-9b93-bd97127b2ef3}, ! Handle
  189.1-2009 Nonres 5B Exposed Floor Mass, ! Name
  ,                                       ! Surface Rendering Name
  {3c19c22b-799b-45ff-9770-7774e19d6d8f}, ! Layer 1
  {e86d9eed-42c5-45fd-bc37-ac45074c02c0}, ! Layer 2
  {fa8dc525-0d05-4066-82ce-266c0bec8984}; ! Layer 3

OS:Material,
  {3c19c22b-799b-45ff-9770-7774e19d6d8f}, ! Handle
  Floor Insulation [9],                   ! Name
  MediumRough,                            ! Roughness
  0.097281,                               ! Thickness {m}
  0.045,                                  ! Conductivity {W/m-K}
  265,                                    ! Density {kg/m3}
  836.8,                                  ! Specific Heat {J/kg-K}
  0.9,                                    ! Thermal Absorptance
  0.7,                                    ! Solar Absorptance
  0.7;                                    ! Visible Absorptance

OS:Material,
  {e86d9eed-42c5-45fd-bc37-ac45074c02c0}, ! Handle
  MAT-CC05 8 HW CONCRETE,                 ! Name
  Rough,                                  ! Roughness
  0.20321,                                ! Thickness {m}
  1.311,                                  ! Conductivity {W/m-K}
  2240,                                   ! Density {kg/m3}
  836.8,                                  ! Specific Heat {J/kg-K}
  0.9,                                    ! Thermal Absorptance
  0.7,                                    ! Solar Absorptance
  0.7;                                    ! Visible Absorptance

OS:Material:NoMass,
  {fa8dc525-0d05-4066-82ce-266c0bec8984}, ! Handle
  CP02 CARPET PAD,                        ! Name
  VeryRough,                              ! Roughness
  0.21648,                                ! Thermal Resistance {m2-K/W}
  0.9,                                    ! Thermal Absorptance
  0.7,                                    ! Solar Absorptance
  0.8;                                    ! Visible Absorptance

OS:ComponentCost:LineItem,
  {f8e15464-8e9d-4d81-b9b4-84bf73df3758}, ! Handle
  189.1-2009 Nonres 5B Exposed Floor Mass, ! Name
  ,                                       ! Type
  Construction,                           ! Line Item Type
  189.1-2009 Nonres 5B Exposed Floor Mass, ! Item Name
  ,                                       ! Object End Use Key
  ,                                       ! Quantity {dimensionless}
  54.312,                                 ! Material Cost {$}
  CostPerArea;                            ! Material Cost Units

OS:ComponentData,
  {e0cb4d77-b842-4a90-9f50-e93364cdd971}, ! Handle
  Component Data 1,                       ! Name
  {45ae4590-e38f-4fff-b883-f65c386d7e0d}, ! UUID
  {2a7ecc86-16fa-4221-9f44-8a5dd895e81e}, ! Version UUID
  1363980945,                             ! Creation Timestamp
  1363980945,                             ! Version Timestamp
  {8bfbc82a-7269-4884-9b93-bd97127b2ef3}, ! Name of Object 1
  {3c19c22b-799b-45ff-9770-7774e19d6d8f}, ! Name of Object 2
  {e86d9eed-42c5-45fd-bc37-ac45074c02c0}, ! Name of Object 3
  {fa8dc525-0d05-4066-82ce-266c0bec8984}, ! Name of Object 4
  {f8e15464-8e9d-4d81-b9b4-84bf73df3758}; ! Name of Object 5

