
OS:Version,
  {1566b568-3157-4e1e-9cbc-6fd733d32e7a}, ! Handle
  0.9.3;                                  ! Version Identifier

OS:Construction,
  {3fc6feec-0495-4964-aae0-ef24a60fcb98}, ! Handle
  90.1-1999 Nonres B25 Ext Slab Unheated - 4in Slab without Carpet, ! Name
  ,                                       ! Surface Rendering Name
  {83940c9b-c8a1-491e-9a9e-8e474c88fd17}; ! Layer 1

OS:Material,
  {83940c9b-c8a1-491e-9a9e-8e474c88fd17}, ! Handle
  MAT-CC05 4 HW CONCRETE,                 ! Name
  Rough,                                  ! Roughness
  0.1016,                                 ! Thickness {m}
  1.311,                                  ! Conductivity {W/m-K}
  2240,                                   ! Density {kg/m3}
  836.8,                                  ! Specific Heat {J/kg-K}
  0.9,                                    ! Thermal Absorptance
  0.7,                                    ! Solar Absorptance
  0.7;                                    ! Visible Absorptance

OS:ComponentCost:LineItem,
  {367cbb41-fd78-4f1a-8405-82123de434cf}, ! Handle
  90.1-1999 Nonres B25 Ext Slab Unheated - 4in Slab without Carpet, ! Name
  ,                                       ! Type
  Construction,                           ! Line Item Type
  90.1-1999 Nonres B25 Ext Slab Unheated - 4in Slab without Carpet, ! Item Name
  ,                                       ! Object End Use Key
  ,                                       ! Quantity {dimensionless}
  45.52,                                  ! Material Cost {$}
  CostPerArea;                            ! Material Cost Units

