
OS:Version,
  {d72f9a5a-ad34-4515-bf8d-b777c8d64ddb}, ! Handle
  0.9.3;                                  ! Version Identifier

OS:Construction,
  {cc662df4-2e18-4e0f-897c-0c17cb31a62f}, ! Handle
  90.1-1999 Nonres B25 Ext Slab Unheated - 4in Slab without Carpet, ! Name
  ,                                       ! Surface Rendering Name
  {50981dfc-897b-4cf7-883c-b7b81d1c42d7}; ! Layer 1

OS:Material,
  {50981dfc-897b-4cf7-883c-b7b81d1c42d7}, ! Handle
  MAT-CC05 4 HW CONCRETE,                 ! Name
  Rough,                                  ! Roughness
  0.1016,                                 ! Thickness {m}
  1.311,                                  ! Conductivity {W/m-K}
  2240,                                   ! Density {kg/m3}
  836.8,                                  ! Specific Heat {J/kg-K}
  0.9,                                    ! Thermal Absorptance
  0.7,                                    ! Solar Absorptance
  0.7;                                    ! Visible Absorptance

OS:ComponentCost:LineItem,
  {bfc1325c-59f5-4130-ae31-2d7ba890ec07}, ! Handle
  90.1-1999 Nonres B25 Ext Slab Unheated - 4in Slab without Carpet, ! Name
  ,                                       ! Type
  Construction,                           ! Line Item Type
  90.1-1999 Nonres B25 Ext Slab Unheated - 4in Slab without Carpet, ! Item Name
  ,                                       ! Object End Use Key
  ,                                       ! Quantity {dimensionless}
  45.52,                                  ! Material Cost {$}
  CostPerArea;                            ! Material Cost Units

OS:ComponentData,
  {57b99225-90cd-4a3f-a50d-bf600de9fb10}, ! Handle
  Component Data 1,                       ! Name
  {01b9e7e5-e898-4028-94c5-fca07866b69f}, ! UUID
  {e593b590-ab68-4669-a797-a54f68c9031a}, ! Version UUID
  1363981154,                             ! Creation Timestamp
  1363981154,                             ! Version Timestamp
  {cc662df4-2e18-4e0f-897c-0c17cb31a62f}, ! Name of Object 1
  {50981dfc-897b-4cf7-883c-b7b81d1c42d7}, ! Name of Object 2
  {bfc1325c-59f5-4130-ae31-2d7ba890ec07}; ! Name of Object 3

