
OS:Version,
  {0547f311-1f8f-4d4b-9e86-509fc9d55258}, ! Handle
  0.9.3;                                  ! Version Identifier

OS:Construction,
  {2b87fc1b-ecbf-47de-b59c-a61a5d7db8d0}, ! Handle
  90.1-2001 Res B25 Roof Metal Building,  ! Name
  ,                                       ! Surface Rendering Name
  {2655ec99-baaf-49c4-a093-245fa99f2dd0}, ! Layer 1
  {4fb9cadd-f73b-41c6-8904-416a72aebc67}; ! Layer 2

OS:Material,
  {2655ec99-baaf-49c4-a093-245fa99f2dd0}, ! Handle
  Metal Roofing,                          ! Name
  MediumSmooth,                           ! Roughness
  0.001524,                               ! Thickness {m}
  45.006,                                 ! Conductivity {W/m-K}
  7680,                                   ! Density {kg/m3}
  418.4,                                  ! Specific Heat {J/kg-K}
  0.9,                                    ! Thermal Absorptance
  0.7,                                    ! Solar Absorptance
  0.3;                                    ! Visible Absorptance

OS:Material,
  {4fb9cadd-f73b-41c6-8904-416a72aebc67}, ! Handle
  Roof Insulation [8],                    ! Name
  MediumRough,                            ! Roughness
  0.166908,                               ! Thickness {m}
  0.049,                                  ! Conductivity {W/m-K}
  265,                                    ! Density {kg/m3}
  836.8,                                  ! Specific Heat {J/kg-K}
  0.9,                                    ! Thermal Absorptance
  0.7,                                    ! Solar Absorptance
  0.7;                                    ! Visible Absorptance

OS:ComponentCost:LineItem,
  {7b8ba549-7f3c-47e4-9bac-2dcf536c0d17}, ! Handle
  90.1-2001 Res B25 Roof Metal Building,  ! Name
  ,                                       ! Type
  Construction,                           ! Line Item Type
  90.1-2001 Res B25 Roof Metal Building,  ! Item Name
  ,                                       ! Object End Use Key
  ,                                       ! Quantity {dimensionless}
  42.184,                                 ! Material Cost {$}
  CostPerArea;                            ! Material Cost Units

