
OS:Version,
  {dca3942c-889f-4e03-b1e2-aadda65ce8e6}, ! Handle
  0.9.3;                                  ! Version Identifier

OS:Material,
  {4a7f2aad-a500-48d5-998b-3df706c9d276}, ! Handle
  Wall Insulation,                        ! Name
  MediumRough,                            ! Roughness
  0.0598725,                              ! Thickness {m}
  0.045,                                  ! Conductivity {W/m-K}
  265,                                    ! Density {kg/m3}
  836.8,                                  ! Specific Heat {J/kg-K}
  0.9,                                    ! Thermal Absorptance
  0.7,                                    ! Solar Absorptance
  0.7;                                    ! Visible Absorptance

OS:Construction,
  {29bea2ec-c164-4e7a-b561-1a7184dce920}, ! Handle
  90.1-2001 Res B2 Ext Wall Metal Building, ! Name
  ,                                       ! Surface Rendering Name
  {ecc4ca94-4c78-4980-9ae8-a3bed1cb2a34}, ! Layer 1
  {4a7f2aad-a500-48d5-998b-3df706c9d276}, ! Layer 2
  {c35d1848-719d-4ea6-af66-566dbf05af8d}; ! Layer 3

OS:Material,
  {ecc4ca94-4c78-4980-9ae8-a3bed1cb2a34}, ! Handle
  Metal Siding,                           ! Name
  Smooth,                                 ! Roughness
  0.0015,                                 ! Thickness {m}
  44.96,                                  ! Conductivity {W/m-K}
  7688.86,                                ! Density {kg/m3}
  410,                                    ! Specific Heat {J/kg-K}
  0.9,                                    ! Thermal Absorptance
  0.2,                                    ! Solar Absorptance
  0.2;                                    ! Visible Absorptance

OS:Material,
  {c35d1848-719d-4ea6-af66-566dbf05af8d}, ! Handle
  1/2IN Gypsum,                           ! Name
  Smooth,                                 ! Roughness
  0.01271,                                ! Thickness {m}
  0.16,                                   ! Conductivity {W/m-K}
  784.9,                                  ! Density {kg/m3}
  830,                                    ! Specific Heat {J/kg-K}
  0.9,                                    ! Thermal Absorptance
  0.92,                                   ! Solar Absorptance
  0.92;                                   ! Visible Absorptance

OS:ComponentCost:LineItem,
  {7e50c536-93d7-46d6-be86-0d9dfc5c4e72}, ! Handle
  90.1-2001 Res B2 Ext Wall Metal Building, ! Name
  ,                                       ! Type
  Construction,                           ! Line Item Type
  90.1-2001 Res B2 Ext Wall Metal Building, ! Item Name
  ,                                       ! Object End Use Key
  ,                                       ! Quantity {dimensionless}
  98.78,                                  ! Material Cost {$}
  CostPerArea;                            ! Material Cost Units

