
OS:Version,
  {9fe0d3c9-7fea-4565-b101-99cb5f11dc98}, ! Handle
  0.9.3;                                  ! Version Identifier

OS:Construction,
  {9b2c1f05-3ad6-4c5d-8964-700589c147c3}, ! Handle
  AEDG-SmOffice 5B Door Swinging,         ! Name
  ,                                       ! Surface Rendering Name
  {9a180eef-fc28-4746-8f46-21e016309a58}; ! Layer 1

OS:Material:NoMass,
  {9a180eef-fc28-4746-8f46-21e016309a58}, ! Handle
  DoorMaterial,                           ! Name
  MediumRough,                            ! Roughness
  0.251589,                               ! Thermal Resistance {m2-K/W}
  0.9,                                    ! Thermal Absorptance
  0.7,                                    ! Solar Absorptance
  0.7;                                    ! Visible Absorptance

OS:ComponentCost:LineItem,
  {bcb5dbf4-e15d-4f17-8402-3b30645b219a}, ! Handle
  AEDG-SmOffice 5B Door Swinging,         ! Name
  ,                                       ! Type
  Construction,                           ! Line Item Type
  AEDG-SmOffice 5B Door Swinging,         ! Item Name
  ,                                       ! Object End Use Key
  ,                                       ! Quantity {dimensionless}
  0,                                      ! Material Cost {$}
  CostPerArea;                            ! Material Cost Units

