
OS:Version,
  {9ef633cf-ceb3-4eb4-94d8-6aff6b189441}, ! Handle
  0.9.3;                                  ! Version Identifier

OS:ComponentCost:LineItem,
  {f27fe8cc-75c4-4147-bcbf-892a9f52eb81}, ! Handle
  90.1-2007 Nonres 8A Roof Metal Building, ! Name
  ,                                       ! Type
  Construction,                           ! Line Item Type
  90.1-2007 Nonres 8A Roof Metal Building, ! Item Name
  ,                                       ! Object End Use Key
  ,                                       ! Quantity {dimensionless}
  42.202,                                 ! Material Cost {$}
  CostPerArea;                            ! Material Cost Units

OS:Material,
  {68d44198-a360-46e9-918c-03b4fc404bd0}, ! Handle
  Roof Insulation [16],                   ! Name
  MediumRough,                            ! Roughness
  0.167035,                               ! Thickness {m}
  0.049,                                  ! Conductivity {W/m-K}
  265,                                    ! Density {kg/m3}
  836.8,                                  ! Specific Heat {J/kg-K}
  0.9,                                    ! Thermal Absorptance
  0.7,                                    ! Solar Absorptance
  0.7;                                    ! Visible Absorptance

OS:Material,
  {a82b14b2-c92b-40f6-9bfd-15e0ebdd7b90}, ! Handle
  Metal Roofing,                          ! Name
  MediumSmooth,                           ! Roughness
  0.001524,                               ! Thickness {m}
  45.006,                                 ! Conductivity {W/m-K}
  7680,                                   ! Density {kg/m3}
  418.4,                                  ! Specific Heat {J/kg-K}
  0.9,                                    ! Thermal Absorptance
  0.7,                                    ! Solar Absorptance
  0.3;                                    ! Visible Absorptance

OS:Construction,
  {26414fb1-2fea-4313-afa5-74af247f364c}, ! Handle
  90.1-2007 Nonres 8A Roof Metal Building, ! Name
  ,                                       ! Surface Rendering Name
  {a82b14b2-c92b-40f6-9bfd-15e0ebdd7b90}, ! Layer 1
  {68d44198-a360-46e9-918c-03b4fc404bd0}; ! Layer 2

