
OS:Version,
  {1509b4b4-4b03-46b8-a502-f818abc7c812}, ! Handle
  0.9.3;                                  ! Version Identifier

OS:Construction,
  {6d61c119-9669-4423-9bf0-769b2f28ebf6}, ! Handle
  90.1-2007 Nonres 8A Roof Metal Building, ! Name
  ,                                       ! Surface Rendering Name
  {a9c09cc8-3bf8-4a37-ab0f-244e0efe7e81}, ! Layer 1
  {69cbd644-f64c-4e92-b8b8-7dbc2e4b4990}; ! Layer 2

OS:Material,
  {a9c09cc8-3bf8-4a37-ab0f-244e0efe7e81}, ! Handle
  Metal Roofing,                          ! Name
  MediumSmooth,                           ! Roughness
  0.001524,                               ! Thickness {m}
  45.006,                                 ! Conductivity {W/m-K}
  7680,                                   ! Density {kg/m3}
  418.4,                                  ! Specific Heat {J/kg-K}
  0.9,                                    ! Thermal Absorptance
  0.7,                                    ! Solar Absorptance
  0.3;                                    ! Visible Absorptance

OS:Material,
  {69cbd644-f64c-4e92-b8b8-7dbc2e4b4990}, ! Handle
  Roof Insulation [16],                   ! Name
  MediumRough,                            ! Roughness
  0.167035,                               ! Thickness {m}
  0.049,                                  ! Conductivity {W/m-K}
  265,                                    ! Density {kg/m3}
  836.8,                                  ! Specific Heat {J/kg-K}
  0.9,                                    ! Thermal Absorptance
  0.7,                                    ! Solar Absorptance
  0.7;                                    ! Visible Absorptance

OS:ComponentCost:LineItem,
  {3ae9b1e4-f409-413d-9cfc-8e2b1d9c7931}, ! Handle
  90.1-2007 Nonres 8A Roof Metal Building, ! Name
  ,                                       ! Type
  Construction,                           ! Line Item Type
  90.1-2007 Nonres 8A Roof Metal Building, ! Item Name
  ,                                       ! Object End Use Key
  ,                                       ! Quantity {dimensionless}
  42.202,                                 ! Material Cost {$}
  CostPerArea;                            ! Material Cost Units

OS:ComponentData,
  {0f35c604-7538-4f9d-8872-79ae05d05854}, ! Handle
  Component Data 1,                       ! Name
  {62d7c348-29fa-494f-ab36-eb289111a38d}, ! UUID
  {d4e6f7a8-ba08-4adb-bf55-83338df12e7b}, ! Version UUID
  1363981824,                             ! Creation Timestamp
  1363981824,                             ! Version Timestamp
  {6d61c119-9669-4423-9bf0-769b2f28ebf6}, ! Name of Object 1
  {a9c09cc8-3bf8-4a37-ab0f-244e0efe7e81}, ! Name of Object 2
  {69cbd644-f64c-4e92-b8b8-7dbc2e4b4990}, ! Name of Object 3
  {3ae9b1e4-f409-413d-9cfc-8e2b1d9c7931}; ! Name of Object 4

