
OS:Version,
  {3310434f-b79c-4b32-97d1-769cfe4bee49}, ! Handle
  0.9.3;                                  ! Version Identifier

OS:Material,
  {dd51fbff-82f4-4587-9b76-b0f9bed6ce03}, ! Handle
  Roof Membrane,                          ! Name
  VeryRough,                              ! Roughness
  0.0095,                                 ! Thickness {m}
  0.16,                                   ! Conductivity {W/m-K}
  1121.29,                                ! Density {kg/m3}
  1460,                                   ! Specific Heat {J/kg-K}
  0.9,                                    ! Thermal Absorptance
  0.7,                                    ! Solar Absorptance
  0.7;                                    ! Visible Absorptance

OS:Material,
  {4578cebb-6c5f-4ddc-b89b-4db5546c34b5}, ! Handle
  Roof Insulation,                        ! Name
  MediumRough,                            ! Roughness
  0.124958,                               ! Thickness {m}
  0.049,                                  ! Conductivity {W/m-K}
  265,                                    ! Density {kg/m3}
  836.8,                                  ! Specific Heat {J/kg-K}
  0.9,                                    ! Thermal Absorptance
  0.7,                                    ! Solar Absorptance
  0.7;                                    ! Visible Absorptance

OS:Material,
  {ff56a5b0-8593-4825-84a6-0a631be79469}, ! Handle
  Metal Decking,                          ! Name
  MediumSmooth,                           ! Roughness
  0.001524,                               ! Thickness {m}
  45.006,                                 ! Conductivity {W/m-K}
  7680,                                   ! Density {kg/m3}
  418.4,                                  ! Specific Heat {J/kg-K}
  0.9,                                    ! Thermal Absorptance
  0.7,                                    ! Solar Absorptance
  0.3;                                    ! Visible Absorptance

OS:ComponentCost:LineItem,
  {acddc10f-ce37-4aa5-9995-2be4e9b5e8d8}, ! Handle
  90.1-2004 Nonres 7A Roof IEAD,          ! Name
  ,                                       ! Type
  Construction,                           ! Line Item Type
  90.1-2004 Nonres 7A Roof IEAD,          ! Item Name
  ,                                       ! Object End Use Key
  ,                                       ! Quantity {dimensionless}
  49.208,                                 ! Material Cost {$}
  CostPerArea;                            ! Material Cost Units

OS:Construction,
  {6d82f6a0-8672-469b-9ff3-f89f05ed3966}, ! Handle
  90.1-2004 Nonres 7A Roof IEAD,          ! Name
  ,                                       ! Surface Rendering Name
  {dd51fbff-82f4-4587-9b76-b0f9bed6ce03}, ! Layer 1
  {4578cebb-6c5f-4ddc-b89b-4db5546c34b5}, ! Layer 2
  {ff56a5b0-8593-4825-84a6-0a631be79469}; ! Layer 3

