
OS:Version,
  {ed36bee3-3317-4246-a8ed-e8ee29573610}, ! Handle
  0.9.3;                                  ! Version Identifier

OS:ComponentCost:LineItem,
  {1b613446-5a34-436e-b349-65b178cd55cb}, ! Handle
  90.1 Windows Window Fixed 2534 Vnl-ClrMpr-Std-ClrSpe, ! Name
  ,                                       ! Type
  Construction,                           ! Line Item Type
  90.1 Windows Window Fixed 2534 Vnl-ClrMpr-Std-ClrSpe, ! Item Name
  ,                                       ! Object End Use Key
  ,                                       ! Quantity {dimensionless}
  0,                                      ! Material Cost {$}
  CostPerArea;                            ! Material Cost Units

OS:Construction,
  {9842a1c6-2229-4e64-8660-130652c21196}, ! Handle
  90.1 Windows Window Fixed 2534 Vnl-ClrMpr-Std-ClrSpe, ! Name
  ,                                       ! Surface Rendering Name
  {132764b5-df47-49a7-9b8b-e71932d9a661}; ! Layer 1

OS:WindowMaterial:Glazing,
  {132764b5-df47-49a7-9b8b-e71932d9a661}, ! Handle
  Theoretical Glass [412],                ! Name
  SpectralAverage,                        ! Optical Data Type
  ,                                       ! Window Glass Spectral Data Set Name
  0.003,                                  ! Thickness {m}
  0.345718,                               ! Solar Transmittance at Normal Incidence
  0.604282,                               ! Front Side Solar Reflectance at Normal Incidence
  0.604282,                               ! Back Side Solar Reflectance at Normal Incidence
  0.380146,                               ! Visible Transmittance at Normal Incidence
  0.569854,                               ! Front Side Visible Reflectance at Normal Incidence
  0.569854,                               ! Back Side Visible Reflectance at Normal Incidence
  0,                                      ! Infrared Transmittance at Normal Incidence
  0.9,                                    ! Front Side Infrared Hemispherical Emissivity
  0.9,                                    ! Back Side Infrared Hemispherical Emissivity
  0.00956575;                             ! Conductivity {W/m-K}

