
OS:Version,
  {ad31bc55-6e3d-46a9-9c29-26d25b163a8d}, ! Handle
  0.9.3;                                  ! Version Identifier

OS:Construction,
  {85e22618-4059-48ff-922c-2b57a05a6390}, ! Handle
  90.1 Windows Window Fixed 2534 Vnl-ClrMpr-Std-ClrSpe, ! Name
  ,                                       ! Surface Rendering Name
  {6f639a45-b1c2-4527-86b6-0d44d410c61e}; ! Layer 1

OS:WindowMaterial:Glazing,
  {6f639a45-b1c2-4527-86b6-0d44d410c61e}, ! Handle
  Theoretical Glass [412],                ! Name
  SpectralAverage,                        ! Optical Data Type
  ,                                       ! Window Glass Spectral Data Set Name
  0.003,                                  ! Thickness {m}
  0.345718,                               ! Solar Transmittance at Normal Incidence
  0.604282,                               ! Front Side Solar Reflectance at Normal Incidence
  0.604282,                               ! Back Side Solar Reflectance at Normal Incidence
  0.380146,                               ! Visible Transmittance at Normal Incidence
  0.569854,                               ! Front Side Visible Reflectance at Normal Incidence
  0.569854,                               ! Back Side Visible Reflectance at Normal Incidence
  0,                                      ! Infrared Transmittance at Normal Incidence
  0.9,                                    ! Front Side Infrared Hemispherical Emissivity
  0.9,                                    ! Back Side Infrared Hemispherical Emissivity
  0.00956575;                             ! Conductivity {W/m-K}

OS:ComponentCost:LineItem,
  {0ef022c2-3b0e-435b-8533-b017be61c79d}, ! Handle
  90.1 Windows Window Fixed 2534 Vnl-ClrMpr-Std-ClrSpe, ! Name
  ,                                       ! Type
  Construction,                           ! Line Item Type
  90.1 Windows Window Fixed 2534 Vnl-ClrMpr-Std-ClrSpe, ! Item Name
  ,                                       ! Object End Use Key
  ,                                       ! Quantity {dimensionless}
  0,                                      ! Material Cost {$}
  CostPerArea;                            ! Material Cost Units

OS:ComponentData,
  {ed872619-f77d-4f2b-a657-10ace736e59a}, ! Handle
  Component Data 1,                       ! Name
  {fdc3fadb-2fa2-4007-9cec-a63bd1e1d275}, ! UUID
  {5e2939e8-9335-4c9d-bdc9-ae577c6776ff}, ! Version UUID
  1363981016,                             ! Creation Timestamp
  1363981016,                             ! Version Timestamp
  {85e22618-4059-48ff-922c-2b57a05a6390}, ! Name of Object 1
  {6f639a45-b1c2-4527-86b6-0d44d410c61e}, ! Name of Object 2
  {0ef022c2-3b0e-435b-8533-b017be61c79d}; ! Name of Object 3

