
OS:Version,
  {7d68479a-cace-446e-abc1-7f37128c9d53}, ! Handle
  0.9.3;                                  ! Version Identifier

OS:Material,
  {1433be42-1668-436b-af23-8c1677afb167}, ! Handle
  AtticFloor Insulation [1],              ! Name
  MediumRough,                            ! Roughness
  0.303719,                               ! Thickness {m}
  0.049,                                  ! Conductivity {W/m-K}
  265,                                    ! Density {kg/m3}
  836.8,                                  ! Specific Heat {J/kg-K}
  0.9,                                    ! Thermal Absorptance
  0.7,                                    ! Solar Absorptance
  0.7;                                    ! Visible Absorptance

OS:Construction,
  {b79ef900-4a91-420b-91af-8842286a6ccb}, ! Handle
  90.1-2007 Res 2A Attic Floor,           ! Name
  ,                                       ! Surface Rendering Name
  {38fcc512-deb6-4804-9e36-67e029b7ff37}, ! Layer 1
  {1433be42-1668-436b-af23-8c1677afb167}, ! Layer 2
  {52649937-c1f8-4b8b-b2ae-79096e761f02}; ! Layer 3

OS:Material,
  {38fcc512-deb6-4804-9e36-67e029b7ff37}, ! Handle
  1/2IN Gypsum Top,                       ! Name
  Smooth,                                 ! Roughness
  0.01271,                                ! Thickness {m}
  0.16,                                   ! Conductivity {W/m-K}
  784.9,                                  ! Density {kg/m3}
  830,                                    ! Specific Heat {J/kg-K}
  0.9,                                    ! Thermal Absorptance
  0.92,                                   ! Solar Absorptance
  0.92;                                   ! Visible Absorptance

OS:Material,
  {52649937-c1f8-4b8b-b2ae-79096e761f02}, ! Handle
  1/2IN Gypsum Bottom,                    ! Name
  Smooth,                                 ! Roughness
  0.01271,                                ! Thickness {m}
  0.16,                                   ! Conductivity {W/m-K}
  784.9,                                  ! Density {kg/m3}
  830,                                    ! Specific Heat {J/kg-K}
  0.9,                                    ! Thermal Absorptance
  0.92,                                   ! Solar Absorptance
  0.92;                                   ! Visible Absorptance

OS:ComponentCost:LineItem,
  {60f47044-f934-444e-8f0e-ccba031b137a}, ! Handle
  90.1-2007 Res 2A Attic Floor,           ! Name
  ,                                       ! Type
  Construction,                           ! Line Item Type
  90.1-2007 Res 2A Attic Floor,           ! Item Name
  ,                                       ! Object End Use Key
  ,                                       ! Quantity {dimensionless}
  35.009,                                 ! Material Cost {$}
  CostPerArea;                            ! Material Cost Units

