
OS:Version,
  {7d67d17b-a0d5-438a-8e38-d28138a2b183}, ! Handle
  0.9.3;                                  ! Version Identifier

OS:Construction,
  {82274756-10c4-4f10-8078-b5f642f95ec7}, ! Handle
  90.1-1999 Nonres B24 Ext Wall Mass,     ! Name
  ,                                       ! Surface Rendering Name
  {a039323f-45da-4d86-87f8-90d58207f6e5}, ! Layer 1
  {14e9df58-5684-4136-89ee-59697cfa2e45}, ! Layer 2
  {3ee9d358-3f46-4497-8c65-04ba6861b4e5}, ! Layer 3
  {7b4a5e6d-2144-4031-80c5-3f154ae8b0db}; ! Layer 4

OS:Material,
  {a039323f-45da-4d86-87f8-90d58207f6e5}, ! Handle
  1IN Stucco,                             ! Name
  Smooth,                                 ! Roughness
  0.0253,                                 ! Thickness {m}
  0.6918,                                 ! Conductivity {W/m-K}
  1858,                                   ! Density {kg/m3}
  837,                                    ! Specific Heat {J/kg-K}
  0.9,                                    ! Thermal Absorptance
  0.92,                                   ! Solar Absorptance
  0.92;                                   ! Visible Absorptance

OS:Material,
  {14e9df58-5684-4136-89ee-59697cfa2e45}, ! Handle
  8IN Concrete HW,                        ! Name
  MediumRough,                            ! Roughness
  0.2033,                                 ! Thickness {m}
  1.7296,                                 ! Conductivity {W/m-K}
  2243,                                   ! Density {kg/m3}
  837,                                    ! Specific Heat {J/kg-K}
  0.9,                                    ! Thermal Absorptance
  0.65,                                   ! Solar Absorptance
  0.65;                                   ! Visible Absorptance

OS:Material,
  {3ee9d358-3f46-4497-8c65-04ba6861b4e5}, ! Handle
  Wall Insulation [12],                   ! Name
  MediumRough,                            ! Roughness
  0.0784782,                              ! Thickness {m}
  0.0432,                                 ! Conductivity {W/m-K}
  91,                                     ! Density {kg/m3}
  837,                                    ! Specific Heat {J/kg-K}
  0.9,                                    ! Thermal Absorptance
  0.5,                                    ! Solar Absorptance
  0.5;                                    ! Visible Absorptance

OS:Material,
  {7b4a5e6d-2144-4031-80c5-3f154ae8b0db}, ! Handle
  1/2IN Gypsum,                           ! Name
  Smooth,                                 ! Roughness
  0.01271,                                ! Thickness {m}
  0.16,                                   ! Conductivity {W/m-K}
  784.9,                                  ! Density {kg/m3}
  830,                                    ! Specific Heat {J/kg-K}
  0.9,                                    ! Thermal Absorptance
  0.92,                                   ! Solar Absorptance
  0.92;                                   ! Visible Absorptance

OS:ComponentCost:LineItem,
  {28c85317-9bee-4552-a79a-47dd8be94f21}, ! Handle
  90.1-1999 Nonres B24 Ext Wall Mass,     ! Name
  ,                                       ! Type
  Construction,                           ! Line Item Type
  90.1-1999 Nonres B24 Ext Wall Mass,     ! Item Name
  ,                                       ! Object End Use Key
  ,                                       ! Quantity {dimensionless}
  67.955,                                 ! Material Cost {$}
  CostPerArea;                            ! Material Cost Units

OS:ComponentData,
  {464c1138-605d-4f49-854d-9fbd6a37fe5c}, ! Handle
  Component Data 1,                       ! Name
  {563a596c-6edb-4164-b169-4b115f915695}, ! UUID
  {307cf23c-7804-46d1-a913-1946e5854655}, ! Version UUID
  1363981147,                             ! Creation Timestamp
  1363981147,                             ! Version Timestamp
  {82274756-10c4-4f10-8078-b5f642f95ec7}, ! Name of Object 1
  {a039323f-45da-4d86-87f8-90d58207f6e5}, ! Name of Object 2
  {14e9df58-5684-4136-89ee-59697cfa2e45}, ! Name of Object 3
  {3ee9d358-3f46-4497-8c65-04ba6861b4e5}, ! Name of Object 4
  {7b4a5e6d-2144-4031-80c5-3f154ae8b0db}, ! Name of Object 5
  {28c85317-9bee-4552-a79a-47dd8be94f21}; ! Name of Object 6

