
OS:Version,
  {d97f326d-d1f6-420b-9a99-35f632dee3c3}, ! Handle
  0.9.3;                                  ! Version Identifier

OS:Construction,
  {5e8be4e5-ac51-48a9-b762-682e3797c47e}, ! Handle
  90.1-1999 Nonres B24 Ext Wall Mass,     ! Name
  ,                                       ! Surface Rendering Name
  {b4dc6642-c8ad-4bb1-b472-e082774d2b77}, ! Layer 1
  {2b0f7b1b-673c-4f78-a19f-cae91aaccb4b}, ! Layer 2
  {5e4d1f08-cd5f-4829-b64d-b362a3dbe3e1}, ! Layer 3
  {93fd4b26-19d2-4e4d-9c4c-c22f62748406}; ! Layer 4

OS:Material,
  {b4dc6642-c8ad-4bb1-b472-e082774d2b77}, ! Handle
  1IN Stucco,                             ! Name
  Smooth,                                 ! Roughness
  0.0253,                                 ! Thickness {m}
  0.6918,                                 ! Conductivity {W/m-K}
  1858,                                   ! Density {kg/m3}
  837,                                    ! Specific Heat {J/kg-K}
  0.9,                                    ! Thermal Absorptance
  0.92,                                   ! Solar Absorptance
  0.92;                                   ! Visible Absorptance

OS:Material,
  {2b0f7b1b-673c-4f78-a19f-cae91aaccb4b}, ! Handle
  8IN Concrete HW,                        ! Name
  MediumRough,                            ! Roughness
  0.2033,                                 ! Thickness {m}
  1.7296,                                 ! Conductivity {W/m-K}
  2243,                                   ! Density {kg/m3}
  837,                                    ! Specific Heat {J/kg-K}
  0.9,                                    ! Thermal Absorptance
  0.65,                                   ! Solar Absorptance
  0.65;                                   ! Visible Absorptance

OS:Material,
  {5e4d1f08-cd5f-4829-b64d-b362a3dbe3e1}, ! Handle
  Wall Insulation [12],                   ! Name
  MediumRough,                            ! Roughness
  0.0784782,                              ! Thickness {m}
  0.0432,                                 ! Conductivity {W/m-K}
  91,                                     ! Density {kg/m3}
  837,                                    ! Specific Heat {J/kg-K}
  0.9,                                    ! Thermal Absorptance
  0.5,                                    ! Solar Absorptance
  0.5;                                    ! Visible Absorptance

OS:Material,
  {93fd4b26-19d2-4e4d-9c4c-c22f62748406}, ! Handle
  1/2IN Gypsum,                           ! Name
  Smooth,                                 ! Roughness
  0.01271,                                ! Thickness {m}
  0.16,                                   ! Conductivity {W/m-K}
  784.9,                                  ! Density {kg/m3}
  830,                                    ! Specific Heat {J/kg-K}
  0.9,                                    ! Thermal Absorptance
  0.92,                                   ! Solar Absorptance
  0.92;                                   ! Visible Absorptance

OS:ComponentCost:LineItem,
  {146b5923-d102-4ace-83c6-fab2daa2d4e0}, ! Handle
  90.1-1999 Nonres B24 Ext Wall Mass,     ! Name
  ,                                       ! Type
  Construction,                           ! Line Item Type
  90.1-1999 Nonres B24 Ext Wall Mass,     ! Item Name
  ,                                       ! Object End Use Key
  ,                                       ! Quantity {dimensionless}
  67.955,                                 ! Material Cost {$}
  CostPerArea;                            ! Material Cost Units

