
OS:Version,
  {b719d041-7e50-46a6-a35c-26b909665b35}, ! Handle
  0.9.3;                                  ! Version Identifier

OS:Construction,
  {f72c5366-1bed-4be3-a7f8-809417b9dcac}, ! Handle
  90.1-2004 Nonres 8A Door Non-Swinging,  ! Name
  ,                                       ! Surface Rendering Name
  {3c16ee36-996e-4808-9ec2-75f1f52a7888}, ! Layer 1
  {bf68c3db-85dc-4b63-bb03-d99ce6c16843}, ! Layer 2
  {f2ce1bbd-7cc1-412b-a717-e4cc8bd61414}; ! Layer 3

OS:Material,
  {3c16ee36-996e-4808-9ec2-75f1f52a7888}, ! Handle
  METAL Door Medium 18Ga_1,               ! Name
  Smooth,                                 ! Roughness
  0.0013106,                              ! Thickness {m}
  45.3149,                                ! Conductivity {W/m-K}
  7833.03,                                ! Density {kg/m3}
  502.08,                                 ! Specific Heat {J/kg-K}
  0.8,                                    ! Thermal Absorptance
  0.5,                                    ! Solar Absorptance
  0.5;                                    ! Visible Absorptance

OS:Material:NoMass,
  {bf68c3db-85dc-4b63-bb03-d99ce6c16843}, ! Handle
  AIR [2],                                ! Name
  Smooth,                                 ! Roughness
  0.352085,                               ! Thermal Resistance {m2-K/W}
  0.8,                                    ! Thermal Absorptance
  0.5,                                    ! Solar Absorptance
  0.5;                                    ! Visible Absorptance

OS:Material,
  {f2ce1bbd-7cc1-412b-a717-e4cc8bd61414}, ! Handle
  METAL Door Medium 18Ga_2,               ! Name
  Smooth,                                 ! Roughness
  0.0013106,                              ! Thickness {m}
  45.3149,                                ! Conductivity {W/m-K}
  7833.03,                                ! Density {kg/m3}
  502.08,                                 ! Specific Heat {J/kg-K}
  0.8,                                    ! Thermal Absorptance
  0.5,                                    ! Solar Absorptance
  0.5;                                    ! Visible Absorptance

OS:ComponentCost:LineItem,
  {0186b89e-1144-459a-b4f8-48920ded1ac1}, ! Handle
  90.1-2004 Nonres 8A Door Non-Swinging,  ! Name
  ,                                       ! Type
  Construction,                           ! Line Item Type
  90.1-2004 Nonres 8A Door Non-Swinging,  ! Item Name
  ,                                       ! Object End Use Key
  ,                                       ! Quantity {dimensionless}
  0,                                      ! Material Cost {$}
  CostPerArea;                            ! Material Cost Units

OS:ComponentData,
  {7a031b3c-d7a5-41c6-85dd-41e176921d4d}, ! Handle
  Component Data 1,                       ! Name
  {af5a8a7d-2a95-4e4c-bae8-20cdf40cbcad}, ! UUID
  {e2fde45a-8fe3-4503-bd63-e699eef26c07}, ! Version UUID
  1363981704,                             ! Creation Timestamp
  1363981704,                             ! Version Timestamp
  {f72c5366-1bed-4be3-a7f8-809417b9dcac}, ! Name of Object 1
  {3c16ee36-996e-4808-9ec2-75f1f52a7888}, ! Name of Object 2
  {bf68c3db-85dc-4b63-bb03-d99ce6c16843}, ! Name of Object 3
  {f2ce1bbd-7cc1-412b-a717-e4cc8bd61414}, ! Name of Object 4
  {0186b89e-1144-459a-b4f8-48920ded1ac1}; ! Name of Object 5

