
OS:Version,
  {ae632dfb-868c-4321-9072-7cea074eef5c}, ! Handle
  0.9.3;                                  ! Version Identifier

OS:Material,
  {5274d5d0-23bb-409a-9539-97d5deda3672}, ! Handle
  METAL Door Medium 18Ga_1,               ! Name
  Smooth,                                 ! Roughness
  0.0013106,                              ! Thickness {m}
  45.3149,                                ! Conductivity {W/m-K}
  7833.03,                                ! Density {kg/m3}
  502.08,                                 ! Specific Heat {J/kg-K}
  0.8,                                    ! Thermal Absorptance
  0.5,                                    ! Solar Absorptance
  0.5;                                    ! Visible Absorptance

OS:Construction,
  {d39ed9f9-6311-41d8-a7a0-8d1df5747ecb}, ! Handle
  90.1-2007 Nonres 3A Door Swinging,      ! Name
  ,                                       ! Surface Rendering Name
  {5274d5d0-23bb-409a-9539-97d5deda3672}, ! Layer 1
  {af0ed1db-d4b3-4d00-83b6-e4b1accd55ae}, ! Layer 2
  {072894cf-88ea-4c0b-980a-bac137857209}; ! Layer 3

OS:Material:NoMass,
  {af0ed1db-d4b3-4d00-83b6-e4b1accd55ae}, ! Handle
  AIR,                                    ! Name
  Smooth,                                 ! Roughness
  0.251489,                               ! Thermal Resistance {m2-K/W}
  0.8,                                    ! Thermal Absorptance
  0.5,                                    ! Solar Absorptance
  0.5;                                    ! Visible Absorptance

OS:Material,
  {072894cf-88ea-4c0b-980a-bac137857209}, ! Handle
  METAL Door Medium 18Ga_2,               ! Name
  Smooth,                                 ! Roughness
  0.0013106,                              ! Thickness {m}
  45.3149,                                ! Conductivity {W/m-K}
  7833.03,                                ! Density {kg/m3}
  502.08,                                 ! Specific Heat {J/kg-K}
  0.8,                                    ! Thermal Absorptance
  0.5,                                    ! Solar Absorptance
  0.5;                                    ! Visible Absorptance

OS:ComponentCost:LineItem,
  {55c3fb00-5700-47b7-ae7a-0833516fcaee}, ! Handle
  90.1-2007 Nonres 3A Door Swinging,      ! Name
  ,                                       ! Type
  Construction,                           ! Line Item Type
  90.1-2007 Nonres 3A Door Swinging,      ! Item Name
  ,                                       ! Object End Use Key
  ,                                       ! Quantity {dimensionless}
  0,                                      ! Material Cost {$}
  CostPerArea;                            ! Material Cost Units

