
OS:Version,
  {0d43fed7-bfdd-4d64-abc1-f89c1b0a38a8}, ! Handle
  0.9.3;                                  ! Version Identifier

OS:Construction,
  {a5389e67-6d37-4ec6-bff0-43146d0d4f87}, ! Handle
  189.1-2009 Res 8A Ext Wall Steel-Framed, ! Name
  ,                                       ! Surface Rendering Name
  {022882fc-3d9a-418c-97ba-6dc45d1c2c01}, ! Layer 1
  {39fda056-58d1-4278-a8cd-392abdb0c4a0}, ! Layer 2
  {ace21fb6-ed18-4295-9423-b93a292967ca}; ! Layer 3

OS:Material:NoMass,
  {022882fc-3d9a-418c-97ba-6dc45d1c2c01}, ! Handle
  MAT-SHEATH,                             ! Name
  Rough,                                  ! Roughness
  0.36256,                                ! Thermal Resistance {m2-K/W}
  0.9,                                    ! Thermal Absorptance
  0.7,                                    ! Solar Absorptance
  0.7;                                    ! Visible Absorptance

OS:Material,
  {39fda056-58d1-4278-a8cd-392abdb0c4a0}, ! Handle
  Wall Insulation [48],                   ! Name
  MediumRough,                            ! Roughness
  0.209988,                               ! Thickness {m}
  0.045,                                  ! Conductivity {W/m-K}
  265,                                    ! Density {kg/m3}
  836.8,                                  ! Specific Heat {J/kg-K}
  0.9,                                    ! Thermal Absorptance
  0.7,                                    ! Solar Absorptance
  0.7;                                    ! Visible Absorptance

OS:Material,
  {ace21fb6-ed18-4295-9423-b93a292967ca}, ! Handle
  1/2IN Gypsum,                           ! Name
  Smooth,                                 ! Roughness
  0.01271,                                ! Thickness {m}
  0.16,                                   ! Conductivity {W/m-K}
  784.9,                                  ! Density {kg/m3}
  830,                                    ! Specific Heat {J/kg-K}
  0.9,                                    ! Thermal Absorptance
  0.92,                                   ! Solar Absorptance
  0.92;                                   ! Visible Absorptance

OS:ComponentCost:LineItem,
  {f358eb67-d764-40dc-bc0b-ffa9783eb1ab}, ! Handle
  189.1-2009 Res 8A Ext Wall Steel-Framed, ! Name
  ,                                       ! Type
  Construction,                           ! Line Item Type
  189.1-2009 Res 8A Ext Wall Steel-Framed, ! Item Name
  ,                                       ! Object End Use Key
  ,                                       ! Quantity {dimensionless}
  105.927,                                ! Material Cost {$}
  CostPerArea;                            ! Material Cost Units

