
OS:Version,
  {46759ba2-02c9-4ed1-aa5d-94299886cd2c}, ! Handle
  0.9.3;                                  ! Version Identifier

OS:Construction,
  {3e9b761d-798a-4a0f-8122-532297c3816d}, ! Handle
  AEDG-SmOffice 7A Int Wall,              ! Name
  ,                                       ! Surface Rendering Name
  {22b6901d-6ee8-41d8-a019-b5a1d844028f}, ! Layer 1
  {22b6901d-6ee8-41d8-a019-b5a1d844028f}; ! Layer 2

OS:Material,
  {22b6901d-6ee8-41d8-a019-b5a1d844028f}, ! Handle
  GP01 1/2 GYPSUM,                        ! Name
  Smooth,                                 ! Roughness
  0.01271,                                ! Thickness {m}
  0.16,                                   ! Conductivity {W/m-K}
  800,                                    ! Density {kg/m3}
  1090,                                   ! Specific Heat {J/kg-K}
  0.9,                                    ! Thermal Absorptance
  0.7,                                    ! Solar Absorptance
  0.5;                                    ! Visible Absorptance

OS:ComponentCost:LineItem,
  {41326737-b74f-4491-b2f8-28475d159f7d}, ! Handle
  AEDG-SmOffice 7A Int Wall,              ! Name
  ,                                       ! Type
  Construction,                           ! Line Item Type
  AEDG-SmOffice 7A Int Wall,              ! Item Name
  ,                                       ! Object End Use Key
  ,                                       ! Quantity {dimensionless}
  0,                                      ! Material Cost {$}
  CostPerArea;                            ! Material Cost Units

OS:ComponentData,
  {7d14fca5-590c-4f17-a6cd-7cb1a8a440b4}, ! Handle
  Component Data 1,                       ! Name
  {7eb88eea-140e-426c-b3d8-11fcd2ecc28a}, ! UUID
  {c5686312-b00c-46f0-a1da-fdc4dea73b9a}, ! Version UUID
  1363981962,                             ! Creation Timestamp
  1363981962,                             ! Version Timestamp
  {3e9b761d-798a-4a0f-8122-532297c3816d}, ! Name of Object 1
  {22b6901d-6ee8-41d8-a019-b5a1d844028f}, ! Name of Object 2
  {41326737-b74f-4491-b2f8-28475d159f7d}; ! Name of Object 3

