
OS:Version,
  {4029bf7a-942c-4c56-b4de-73b97657861f}, ! Handle
  0.9.3;                                  ! Version Identifier

OS:Construction,
  {866f0807-27e3-4865-99dc-a70142806795}, ! Handle
  AEDG-SmOffice 7A Int Wall,              ! Name
  ,                                       ! Surface Rendering Name
  {691ec049-2301-4090-8864-fe485826c23e}, ! Layer 1
  {691ec049-2301-4090-8864-fe485826c23e}; ! Layer 2

OS:Material,
  {691ec049-2301-4090-8864-fe485826c23e}, ! Handle
  GP01 1/2 GYPSUM,                        ! Name
  Smooth,                                 ! Roughness
  0.01271,                                ! Thickness {m}
  0.16,                                   ! Conductivity {W/m-K}
  800,                                    ! Density {kg/m3}
  1090,                                   ! Specific Heat {J/kg-K}
  0.9,                                    ! Thermal Absorptance
  0.7,                                    ! Solar Absorptance
  0.5;                                    ! Visible Absorptance

OS:ComponentCost:LineItem,
  {b5e8f46d-3f8c-42d8-9edf-5049440ca298}, ! Handle
  AEDG-SmOffice 7A Int Wall,              ! Name
  ,                                       ! Type
  Construction,                           ! Line Item Type
  AEDG-SmOffice 7A Int Wall,              ! Item Name
  ,                                       ! Object End Use Key
  ,                                       ! Quantity {dimensionless}
  0,                                      ! Material Cost {$}
  CostPerArea;                            ! Material Cost Units

OS:Material,
  {ab70692b-2444-4e81-9a80-de1f3ec678c2}, ! Handle
  GP01 1/2 GYPSUM 1,                      ! Name
  Smooth,                                 ! Roughness
  0.01271,                                ! Thickness {m}
  0.16,                                   ! Conductivity {W/m-K}
  800,                                    ! Density {kg/m3}
  1090,                                   ! Specific Heat {J/kg-K}
  0.9,                                    ! Thermal Absorptance
  0.7,                                    ! Solar Absorptance
  0.5;                                    ! Visible Absorptance

