
OS:Version,
  {d0ad3cd3-c8b8-4208-8d69-53220c96e260}, ! Handle
  0.9.3;                                  ! Version Identifier

OS:Construction,
  {d5b1ec7b-6e5d-4ab4-b129-8cd9a53ffca3}, ! Handle
  90.1 Windows Window Fixed 3461 Brk-Clr-Ins-V65-Ins-Clr, ! Name
  ,                                       ! Surface Rendering Name
  {1a439a55-5bf2-4b44-be11-bd4602c2c8bd}; ! Layer 1

OS:WindowMaterial:Glazing,
  {1a439a55-5bf2-4b44-be11-bd4602c2c8bd}, ! Handle
  Theoretical Glass [416],                ! Name
  SpectralAverage,                        ! Optical Data Type
  ,                                       ! Window Glass Spectral Data Set Name
  0.003,                                  ! Thickness {m}
  0.345718,                               ! Solar Transmittance at Normal Incidence
  0.604282,                               ! Front Side Solar Reflectance at Normal Incidence
  0.604282,                               ! Back Side Solar Reflectance at Normal Incidence
  0.479911,                               ! Visible Transmittance at Normal Incidence
  0.470089,                               ! Front Side Visible Reflectance at Normal Incidence
  0.470089,                               ! Back Side Visible Reflectance at Normal Incidence
  0,                                      ! Infrared Transmittance at Normal Incidence
  0.9,                                    ! Front Side Infrared Hemispherical Emissivity
  0.9,                                    ! Back Side Infrared Hemispherical Emissivity
  0.00846363;                             ! Conductivity {W/m-K}

OS:ComponentCost:LineItem,
  {9182ec4c-9107-4c37-8139-03e03b82f896}, ! Handle
  90.1 Windows Window Fixed 3461 Brk-Clr-Ins-V65-Ins-Clr, ! Name
  ,                                       ! Type
  Construction,                           ! Line Item Type
  90.1 Windows Window Fixed 3461 Brk-Clr-Ins-V65-Ins-Clr, ! Item Name
  ,                                       ! Object End Use Key
  ,                                       ! Quantity {dimensionless}
  0,                                      ! Material Cost {$}
  CostPerArea;                            ! Material Cost Units

