
! 
OS:Version,
  {8503bb35-3288-4176-9c41-752f3d976c4b}, !- Handle
  1.13.0;                                 !- Version Identifier


! 
OS:Material,
  {8017c838-9cc7-412c-9798-497804ed450d}, !- Handle
  Aislamiento: SATE
WEBER: weber.therm placa PF 100 (0.100 m)
R: 5.0 m2K/W,                             !- Name
  MediumRough,                                 !- Roughness
  0.1,                                    !- Thickness {m}
  0.02,                                    !- Conductivity {W/m-K}
  35.0,                                    !- Density {kg/m3}
  800.0,                                    !- Specific Heat {J/kg-K}
  0.9,                                    !- Thermal Absorptance
  0.6,                                    !- Solar Absorptance
  0.6;                                    !- Visible Absorptance

