
OS:Version,
  {40080d57-54f4-429c-8630-24f74c45eb2f}, ! Handle
  0.9.3;                                  ! Version Identifier

OS:Construction,
  {f30b0882-5fee-4ed7-90f4-46af82570514}, ! Handle
  90.1-2007 Res 5B Ext Wall Mass,         ! Name
  ,                                       ! Surface Rendering Name
  {34341ac8-70a9-43cb-92a7-778d465fca88}, ! Layer 1
  {0044871f-d5bb-499e-b4b3-9c0592aef4d0}, ! Layer 2
  {de1853c2-a2cd-43ce-8b96-80264f47a105}, ! Layer 3
  {af1337d7-e32a-4f7a-8fd0-cd45d3921b73}; ! Layer 4

OS:Material,
  {34341ac8-70a9-43cb-92a7-778d465fca88}, ! Handle
  1IN Stucco,                             ! Name
  Smooth,                                 ! Roughness
  0.0253,                                 ! Thickness {m}
  0.6918,                                 ! Conductivity {W/m-K}
  1858,                                   ! Density {kg/m3}
  837,                                    ! Specific Heat {J/kg-K}
  0.9,                                    ! Thermal Absorptance
  0.92,                                   ! Solar Absorptance
  0.92;                                   ! Visible Absorptance

OS:Material,
  {0044871f-d5bb-499e-b4b3-9c0592aef4d0}, ! Handle
  8IN Concrete HW,                        ! Name
  MediumRough,                            ! Roughness
  0.2033,                                 ! Thickness {m}
  1.7296,                                 ! Conductivity {W/m-K}
  2243,                                   ! Density {kg/m3}
  837,                                    ! Specific Heat {J/kg-K}
  0.9,                                    ! Thermal Absorptance
  0.65,                                   ! Solar Absorptance
  0.65;                                   ! Visible Absorptance

OS:Material,
  {de1853c2-a2cd-43ce-8b96-80264f47a105}, ! Handle
  Wall Insulation [12],                   ! Name
  MediumRough,                            ! Roughness
  0.0784782,                              ! Thickness {m}
  0.0432,                                 ! Conductivity {W/m-K}
  91,                                     ! Density {kg/m3}
  837,                                    ! Specific Heat {J/kg-K}
  0.9,                                    ! Thermal Absorptance
  0.5,                                    ! Solar Absorptance
  0.5;                                    ! Visible Absorptance

OS:Material,
  {af1337d7-e32a-4f7a-8fd0-cd45d3921b73}, ! Handle
  1/2IN Gypsum,                           ! Name
  Smooth,                                 ! Roughness
  0.01271,                                ! Thickness {m}
  0.16,                                   ! Conductivity {W/m-K}
  784.9,                                  ! Density {kg/m3}
  830,                                    ! Specific Heat {J/kg-K}
  0.9,                                    ! Thermal Absorptance
  0.92,                                   ! Solar Absorptance
  0.92;                                   ! Visible Absorptance

OS:ComponentCost:LineItem,
  {75fa5065-5843-4cd7-8e89-3938b842687b}, ! Handle
  90.1-2007 Res 5B Ext Wall Mass,         ! Name
  ,                                       ! Type
  Construction,                           ! Line Item Type
  90.1-2007 Res 5B Ext Wall Mass,         ! Item Name
  ,                                       ! Object End Use Key
  ,                                       ! Quantity {dimensionless}
  67.955,                                 ! Material Cost {$}
  CostPerArea;                            ! Material Cost Units

