
OS:Version,
  {989889e1-cc68-4066-9df5-7d04523df4c2}, ! Handle
  0.9.3;                                  ! Version Identifier

OS:Construction,
  {9beba06d-67b8-4394-98fa-582bade57edf}, ! Handle
  90.1-1999 Res B26 Roof Attic and Other, ! Name
  ,                                       ! Surface Rendering Name
  {a4d664bd-64a0-4847-8f1d-495e23141de1}, ! Layer 1
  {31569ad1-da2d-4b04-aadd-bdb242f40e0d}, ! Layer 2
  {8c951122-0680-4dc2-8e1a-c6dab1c76fb2}, ! Layer 3
  {6135bc7e-0dca-4eaa-bb78-e5837f06d776}; ! Layer 4

OS:Material,
  {a4d664bd-64a0-4847-8f1d-495e23141de1}, ! Handle
  Wood Shingles,                          ! Name
  VeryRough,                              ! Roughness
  0.0178,                                 ! Thickness {m}
  0.115,                                  ! Conductivity {W/m-K}
  513,                                    ! Density {kg/m3}
  1255,                                   ! Specific Heat {J/kg-K}
  0.9,                                    ! Thermal Absorptance
  0.78,                                   ! Solar Absorptance
  0.78;                                   ! Visible Absorptance

OS:Material,
  {31569ad1-da2d-4b04-aadd-bdb242f40e0d}, ! Handle
  1IN Wood Decking,                       ! Name
  MediumSmooth,                           ! Roughness
  0.0254,                                 ! Thickness {m}
  0.1211,                                 ! Conductivity {W/m-K}
  593,                                    ! Density {kg/m3}
  2510,                                   ! Specific Heat {J/kg-K}
  0.9,                                    ! Thermal Absorptance
  0.78,                                   ! Solar Absorptance
  0.78;                                   ! Visible Absorptance

OS:Material,
  {8c951122-0680-4dc2-8e1a-c6dab1c76fb2}, ! Handle
  Roof Insulation [11],                   ! Name
  MediumRough,                            ! Roughness
  0.474289,                               ! Thickness {m}
  0.049,                                  ! Conductivity {W/m-K}
  265,                                    ! Density {kg/m3}
  836.8,                                  ! Specific Heat {J/kg-K}
  0.9,                                    ! Thermal Absorptance
  0.7,                                    ! Solar Absorptance
  0.7;                                    ! Visible Absorptance

OS:Material,
  {6135bc7e-0dca-4eaa-bb78-e5837f06d776}, ! Handle
  1/2IN Gypsum,                           ! Name
  Smooth,                                 ! Roughness
  0.01271,                                ! Thickness {m}
  0.16,                                   ! Conductivity {W/m-K}
  784.9,                                  ! Density {kg/m3}
  830,                                    ! Specific Heat {J/kg-K}
  0.9,                                    ! Thermal Absorptance
  0.92,                                   ! Solar Absorptance
  0.92;                                   ! Visible Absorptance

OS:ComponentCost:LineItem,
  {d0313032-17f5-4d72-ab9b-d333c15a7a8c}, ! Handle
  90.1-1999 Res B26 Roof Attic and Other, ! Name
  ,                                       ! Type
  Construction,                           ! Line Item Type
  90.1-1999 Res B26 Roof Attic and Other, ! Item Name
  ,                                       ! Object End Use Key
  ,                                       ! Quantity {dimensionless}
  38.449,                                 ! Material Cost {$}
  CostPerArea;                            ! Material Cost Units

