
OS:Version,
  {b9454e89-b7f7-4d69-bf37-5d3a311b16f9}, ! Handle
  0.9.3;                                  ! Version Identifier

OS:Material,
  {fc96c53d-2cfd-4411-8b3a-a675cc32640d}, ! Handle
  1/2IN Gypsum,                           ! Name
  Smooth,                                 ! Roughness
  0.01271,                                ! Thickness {m}
  0.16,                                   ! Conductivity {W/m-K}
  784.9,                                  ! Density {kg/m3}
  830,                                    ! Specific Heat {J/kg-K}
  0.9,                                    ! Thermal Absorptance
  0.92,                                   ! Solar Absorptance
  0.92;                                   ! Visible Absorptance

OS:Material,
  {f2f029d8-0b92-41a1-8637-ff0ce153897b}, ! Handle
  1IN Wood Decking,                       ! Name
  MediumSmooth,                           ! Roughness
  0.0254,                                 ! Thickness {m}
  0.1211,                                 ! Conductivity {W/m-K}
  593,                                    ! Density {kg/m3}
  2510,                                   ! Specific Heat {J/kg-K}
  0.9,                                    ! Thermal Absorptance
  0.78,                                   ! Solar Absorptance
  0.78;                                   ! Visible Absorptance

OS:Material,
  {22f397a7-04be-49fd-b298-8318021fc011}, ! Handle
  Roof Insulation [5],                    ! Name
  MediumRough,                            ! Roughness
  0.286906,                               ! Thickness {m}
  0.049,                                  ! Conductivity {W/m-K}
  265,                                    ! Density {kg/m3}
  836.8,                                  ! Specific Heat {J/kg-K}
  0.9,                                    ! Thermal Absorptance
  0.7,                                    ! Solar Absorptance
  0.7;                                    ! Visible Absorptance

OS:ComponentCost:LineItem,
  {9d2df8f8-b080-4492-b641-d2c8dc62425c}, ! Handle
  90.1-1999 Nonres B23 Roof Attic and Other, ! Name
  ,                                       ! Type
  Construction,                           ! Line Item Type
  90.1-1999 Nonres B23 Roof Attic and Other, ! Item Name
  ,                                       ! Object End Use Key
  ,                                       ! Quantity {dimensionless}
  34.757,                                 ! Material Cost {$}
  CostPerArea;                            ! Material Cost Units

OS:Material,
  {2c32c1e9-69ea-4dc8-92be-50a67dc3070b}, ! Handle
  Wood Shingles,                          ! Name
  VeryRough,                              ! Roughness
  0.0178,                                 ! Thickness {m}
  0.115,                                  ! Conductivity {W/m-K}
  513,                                    ! Density {kg/m3}
  1255,                                   ! Specific Heat {J/kg-K}
  0.9,                                    ! Thermal Absorptance
  0.78,                                   ! Solar Absorptance
  0.78;                                   ! Visible Absorptance

OS:Construction,
  {09d97daf-d66c-4155-9ffe-460f0b28997f}, ! Handle
  90.1-1999 Nonres B23 Roof Attic and Other, ! Name
  ,                                       ! Surface Rendering Name
  {2c32c1e9-69ea-4dc8-92be-50a67dc3070b}, ! Layer 1
  {f2f029d8-0b92-41a1-8637-ff0ce153897b}, ! Layer 2
  {22f397a7-04be-49fd-b298-8318021fc011}, ! Layer 3
  {fc96c53d-2cfd-4411-8b3a-a675cc32640d}; ! Layer 4

