
OS:Version,
  {610a7d4d-76a2-4a4f-9ed8-e3554ee80dbb}, ! Handle
  0.9.3;                                  ! Version Identifier

OS:Material,
  {6741c73b-95ca-4a5b-b6a3-6b9e8fded58a}, ! Handle
  MAT-CC05 8 HW CONCRETE,                 ! Name
  Rough,                                  ! Roughness
  0.20321,                                ! Thickness {m}
  1.311,                                  ! Conductivity {W/m-K}
  2240,                                   ! Density {kg/m3}
  836.8,                                  ! Specific Heat {J/kg-K}
  0.9,                                    ! Thermal Absorptance
  0.7,                                    ! Solar Absorptance
  0.7;                                    ! Visible Absorptance

OS:Construction,
  {7e978087-6502-40e8-83db-f73db4a711a9}, ! Handle
  90.1-1999 Nonres B11 Ext Slab Unheated - 8in Slab without Carpet, ! Name
  ,                                       ! Surface Rendering Name
  {6741c73b-95ca-4a5b-b6a3-6b9e8fded58a}; ! Layer 1

OS:ComponentCost:LineItem,
  {8c1f4c33-c5d4-4366-81c2-7ccc272dcb62}, ! Handle
  90.1-1999 Nonres B11 Ext Slab Unheated - 8in Slab without Carpet, ! Name
  ,                                       ! Type
  Construction,                           ! Line Item Type
  90.1-1999 Nonres B11 Ext Slab Unheated - 8in Slab without Carpet, ! Item Name
  ,                                       ! Object End Use Key
  ,                                       ! Quantity {dimensionless}
  45.52,                                  ! Material Cost {$}
  CostPerArea;                            ! Material Cost Units

