
OS:Version,
  {9502a08c-9039-41a0-a0bd-7fe80d6a14b1}, ! Handle
  0.9.3;                                  ! Version Identifier

OS:ComponentCost:LineItem,
  {53fcf23d-e16b-4894-a407-43cd5ebee381}, ! Handle
  90.1-2001 Nonres B20 Ext Slab Unheated - 4in Slab without Carpet, ! Name
  ,                                       ! Type
  Construction,                           ! Line Item Type
  90.1-2001 Nonres B20 Ext Slab Unheated - 4in Slab without Carpet, ! Item Name
  ,                                       ! Object End Use Key
  ,                                       ! Quantity {dimensionless}
  45.52,                                  ! Material Cost {$}
  CostPerArea;                            ! Material Cost Units

OS:Construction,
  {7fa7927c-e367-4db7-8f00-b6685b3cbb63}, ! Handle
  90.1-2001 Nonres B20 Ext Slab Unheated - 4in Slab without Carpet, ! Name
  ,                                       ! Surface Rendering Name
  {d33197d0-e6ed-47cc-9b42-5a3600f2ca5b}; ! Layer 1

OS:Material,
  {d33197d0-e6ed-47cc-9b42-5a3600f2ca5b}, ! Handle
  MAT-CC05 4 HW CONCRETE,                 ! Name
  Rough,                                  ! Roughness
  0.1016,                                 ! Thickness {m}
  1.311,                                  ! Conductivity {W/m-K}
  2240,                                   ! Density {kg/m3}
  836.8,                                  ! Specific Heat {J/kg-K}
  0.9,                                    ! Thermal Absorptance
  0.7,                                    ! Solar Absorptance
  0.7;                                    ! Visible Absorptance

