
OS:Version,
  {d258d4a9-1861-41a3-927d-b6fc329dda33}, ! Handle
  0.9.3;                                  ! Version Identifier

OS:Construction,
  {825864bd-bbb5-4e54-98bc-f431d265d442}, ! Handle
  90.1-2004 Res 8A Exposed Floor Mass,    ! Name
  ,                                       ! Surface Rendering Name
  {330c45a1-346c-4072-8ebd-119f4240a0c6}, ! Layer 1
  {bac732d3-485c-4e04-8442-fe0ff493296c}, ! Layer 2
  {ba37fc7a-28d4-46dc-8ebf-a073b7a70c99}; ! Layer 3

OS:Material,
  {330c45a1-346c-4072-8ebd-119f4240a0c6}, ! Handle
  Floor Insulation [5],                   ! Name
  MediumRough,                            ! Roughness
  0.111151,                               ! Thickness {m}
  0.045,                                  ! Conductivity {W/m-K}
  265,                                    ! Density {kg/m3}
  836.8,                                  ! Specific Heat {J/kg-K}
  0.9,                                    ! Thermal Absorptance
  0.7,                                    ! Solar Absorptance
  0.7;                                    ! Visible Absorptance

OS:Material,
  {bac732d3-485c-4e04-8442-fe0ff493296c}, ! Handle
  MAT-CC05 8 HW CONCRETE,                 ! Name
  Rough,                                  ! Roughness
  0.20321,                                ! Thickness {m}
  1.311,                                  ! Conductivity {W/m-K}
  2240,                                   ! Density {kg/m3}
  836.8,                                  ! Specific Heat {J/kg-K}
  0.9,                                    ! Thermal Absorptance
  0.7,                                    ! Solar Absorptance
  0.7;                                    ! Visible Absorptance

OS:Material:NoMass,
  {ba37fc7a-28d4-46dc-8ebf-a073b7a70c99}, ! Handle
  CP02 CARPET PAD,                        ! Name
  VeryRough,                              ! Roughness
  0.21648,                                ! Thermal Resistance {m2-K/W}
  0.9,                                    ! Thermal Absorptance
  0.7,                                    ! Solar Absorptance
  0.8;                                    ! Visible Absorptance

OS:ComponentCost:LineItem,
  {3de9def2-00fa-48ba-8782-02904a285356}, ! Handle
  90.1-2004 Res 8A Exposed Floor Mass,    ! Name
  ,                                       ! Type
  Construction,                           ! Line Item Type
  90.1-2004 Res 8A Exposed Floor Mass,    ! Item Name
  ,                                       ! Object End Use Key
  ,                                       ! Quantity {dimensionless}
  56.262,                                 ! Material Cost {$}
  CostPerArea;                            ! Material Cost Units

