
OS:Version,
  {d6dc6e8b-a50b-45e2-8986-07d49f7a24e6}, ! Handle
  0.9.3;                                  ! Version Identifier

OS:ComponentCost:LineItem,
  {f97bbfae-2e18-4873-90a8-71e9ab20c2df}, ! Handle
  90.1-2007 Nonres 3A Skylight without Curb, ! Name
  ,                                       ! Type
  Construction,                           ! Line Item Type
  90.1-2007 Nonres 3A Skylight without Curb, ! Item Name
  ,                                       ! Object End Use Key
  ,                                       ! Quantity {dimensionless}
  526.439,                                ! Material Cost {$}
  CostPerArea;                            ! Material Cost Units

OS:Construction,
  {df6338eb-14ea-4c3b-98c0-b6c2ba792e5b}, ! Handle
  90.1-2007 Nonres 3A Skylight without Curb, ! Name
  ,                                       ! Surface Rendering Name
  {77865470-af8a-43f8-9153-faf7673360ea}; ! Layer 1

OS:WindowMaterial:Glazing,
  {77865470-af8a-43f8-9153-faf7673360ea}, ! Handle
  Theoretical Glass [177],                ! Name
  SpectralAverage,                        ! Optical Data Type
  ,                                       ! Window Glass Spectral Data Set Name
  0.003,                                  ! Thickness {m}
  0.382225,                               ! Solar Transmittance at Normal Incidence
  0.567775,                               ! Front Side Solar Reflectance at Normal Incidence
  0.567775,                               ! Back Side Solar Reflectance at Normal Incidence
  0.489393,                               ! Visible Transmittance at Normal Incidence
  0.460607,                               ! Front Side Visible Reflectance at Normal Incidence
  0.460607,                               ! Back Side Visible Reflectance at Normal Incidence
  0,                                      ! Infrared Transmittance at Normal Incidence
  0.9,                                    ! Front Side Infrared Hemispherical Emissivity
  0.9,                                    ! Back Side Infrared Hemispherical Emissivity
  0.03026;                                ! Conductivity {W/m-K}

