
OS:Version,
  {f76d6c5d-8093-4a58-a399-085d010eb636}, !- Handle
  1.0.6;                                  !- Version Identifier

OS:WindowMaterial:Glazing,
  {fc3eafc6-4bd4-41f1-9563-5a5f3b6fbf18}, !- Handle
  189.1-2011 NONRES 4B NONMETAL FRAMING THEORETICAL GLAZING, !- Name
  SpectralAverage,                        !- Optical Data Type
  ,                                       !- Window Glass Spectral Data Set Name
  0.04189,                                !- Thickness {m}
  0.26293,                                !- Solar Transmittance at Normal Incidence
  0.53605,                                !- Front Side Solar Reflectance at Normal Incidence
  0.53605,                                !- Back Side Solar Reflectance at Normal Incidence
  0.26293,                                !- Visible Transmittance at Normal Incidence
  0.53605,                                !- Front Side Visible Reflectance at Normal Incidence
  0.53605,                                !- Back Side Visible Reflectance at Normal Incidence
  0,                                      !- Infrared Transmittance at Normal Incidence
  0.84,                                   !- Front Side Infrared Hemispherical Emissivity
  0.84,                                   !- Back Side Infrared Hemispherical Emissivity
  0.1012,                                 !- Conductivity {W/m-K}
  1,                                      !- Dirt Correction Factor for Solar and Visible Transmittance
  No;                                     !- Solar Diffusing

OS:Construction,
  {9e7e79e5-d780-447c-b5c2-fc1d175abf9c}, !- Handle
  189.1-2011 NONRES 4B NONMETAL FRAMING,  !- Name
  ,                                       !- Surface Rendering Name
  {fc3eafc6-4bd4-41f1-9563-5a5f3b6fbf18}; !- Layer 1

