
OS:Version,
  {735efb69-2e4e-4b2f-820c-e04c44aee73d}, !- Handle
  1.1.0;                                  !- Version Identifier

OS:Construction,
  {5ce1af8e-8314-4e9e-98c1-ba7670795af6}, !- Handle
  Dbl LoE Elec Abs Bleached 6mm/13mm Arg, !- Name
  ,                                       !- Surface Rendering Name
  {c03d9342-dbfb-43f7-bd0d-9060640fd48b}, !- Layer 1
  {01282eaf-172c-4113-87e9-0c5ef36b8ce6}, !- Layer 2
  {bc419eef-c64c-43a2-a6fd-38742197b330}; !- Layer 3

OS:WindowMaterial:Glazing,
  {c03d9342-dbfb-43f7-bd0d-9060640fd48b}, !- Handle
  ECABS-2 BLEACHED 6MM,                   !- Name
  SpectralAverage,                        !- Optical Data Type
  ,                                       !- Window Glass Spectral Data Set Name
  0.006,                                  !- Thickness {m}
  0.814,                                  !- Solar Transmittance at Normal Incidence
  0.086,                                  !- Front Side Solar Reflectance at Normal Incidence
  0.086,                                  !- Back Side Solar Reflectance at Normal Incidence
  0.847,                                  !- Visible Transmittance at Normal Incidence
  0.099,                                  !- Front Side Visible Reflectance at Normal Incidence
  0.099,                                  !- Back Side Visible Reflectance at Normal Incidence
  0,                                      !- Infrared Transmittance at Normal Incidence
  0.84,                                   !- Front Side Infrared Hemispherical Emissivity
  0.1,                                    !- Back Side Infrared Hemispherical Emissivity
  0.9;                                    !- Conductivity {W/m-K}

OS:WindowMaterial:Gas,
  {01282eaf-172c-4113-87e9-0c5ef36b8ce6}, !- Handle
  ARGON 13MM,                             !- Name
  Argon,                                  !- Gas Type
  0.0127;                                 !- Thickness {m}

OS:WindowMaterial:Glazing,
  {bc419eef-c64c-43a2-a6fd-38742197b330}, !- Handle
  LoE SPEC SEL CLEAR 6MM Rev,             !- Name
  SpectralAverage,                        !- Optical Data Type
  ,                                       !- Window Glass Spectral Data Set Name
  0.006,                                  !- Thickness {m}
  0.43,                                   !- Solar Transmittance at Normal Incidence
  0.42,                                   !- Front Side Solar Reflectance at Normal Incidence
  0.3,                                    !- Back Side Solar Reflectance at Normal Incidence
  0.77,                                   !- Visible Transmittance at Normal Incidence
  0.06,                                   !- Front Side Visible Reflectance at Normal Incidence
  0.07,                                   !- Back Side Visible Reflectance at Normal Incidence
  0,                                      !- Infrared Transmittance at Normal Incidence
  0.03,                                   !- Front Side Infrared Hemispherical Emissivity
  0.84,                                   !- Back Side Infrared Hemispherical Emissivity
  0.9;                                    !- Conductivity {W/m-K}

