
OS:Version,
  {9b983c64-fb63-465c-a417-531611ec1556}, ! Handle
  0.9.3;                                  ! Version Identifier

OS:Construction,
  {926b806f-c43d-47be-a7da-80fbc4c74d5b}, ! Handle
  90.1-1999 Nonres B26 Int Wall,          ! Name
  ,                                       ! Surface Rendering Name
  {97d7cfe3-2482-4b87-81b1-73d03586e0b5}, ! Layer 1
  {97d7cfe3-2482-4b87-81b1-73d03586e0b5}; ! Layer 2

OS:Material,
  {97d7cfe3-2482-4b87-81b1-73d03586e0b5}, ! Handle
  GP01 1/2 GYPSUM,                        ! Name
  Smooth,                                 ! Roughness
  0.01271,                                ! Thickness {m}
  0.16,                                   ! Conductivity {W/m-K}
  800,                                    ! Density {kg/m3}
  1090,                                   ! Specific Heat {J/kg-K}
  0.9,                                    ! Thermal Absorptance
  0.7,                                    ! Solar Absorptance
  0.5;                                    ! Visible Absorptance

OS:ComponentCost:LineItem,
  {eb1fa484-084a-478a-b2c6-d9b677388f97}, ! Handle
  90.1-1999 Nonres B26 Int Wall,          ! Name
  ,                                       ! Type
  Construction,                           ! Line Item Type
  90.1-1999 Nonres B26 Int Wall,          ! Item Name
  ,                                       ! Object End Use Key
  ,                                       ! Quantity {dimensionless}
  0,                                      ! Material Cost {$}
  CostPerArea;                            ! Material Cost Units

OS:ComponentData,
  {f40f9cb5-e3b5-49a0-b580-bc729e052b9f}, ! Handle
  Component Data 1,                       ! Name
  {9deccc28-ff30-4420-ba2d-c2ad5749ad92}, ! UUID
  {db14732f-392f-4050-a9b2-9aee0385d747}, ! Version UUID
  1363981156,                             ! Creation Timestamp
  1363981156,                             ! Version Timestamp
  {926b806f-c43d-47be-a7da-80fbc4c74d5b}, ! Name of Object 1
  {97d7cfe3-2482-4b87-81b1-73d03586e0b5}, ! Name of Object 2
  {eb1fa484-084a-478a-b2c6-d9b677388f97}; ! Name of Object 3

