
OS:Version,
  {1e07ed53-f64b-4bbb-aa74-b7cba7c1d015}, ! Handle
  0.9.3;                                  ! Version Identifier

OS:Construction,
  {3d489930-eb70-4ebb-a588-ea0e5ccaea4e}, ! Handle
  90.1-1999 Nonres B26 Int Wall,          ! Name
  ,                                       ! Surface Rendering Name
  {d43cc44f-d5f6-429e-b861-d83d5ad94d4e}, ! Layer 1
  {d43cc44f-d5f6-429e-b861-d83d5ad94d4e}; ! Layer 2

OS:Material,
  {d43cc44f-d5f6-429e-b861-d83d5ad94d4e}, ! Handle
  GP01 1/2 GYPSUM,                        ! Name
  Smooth,                                 ! Roughness
  0.01271,                                ! Thickness {m}
  0.16,                                   ! Conductivity {W/m-K}
  800,                                    ! Density {kg/m3}
  1090,                                   ! Specific Heat {J/kg-K}
  0.9,                                    ! Thermal Absorptance
  0.7,                                    ! Solar Absorptance
  0.5;                                    ! Visible Absorptance

OS:ComponentCost:LineItem,
  {5472915b-af46-4ca5-af15-d1715440d86a}, ! Handle
  90.1-1999 Nonres B26 Int Wall,          ! Name
  ,                                       ! Type
  Construction,                           ! Line Item Type
  90.1-1999 Nonres B26 Int Wall,          ! Item Name
  ,                                       ! Object End Use Key
  ,                                       ! Quantity {dimensionless}
  0,                                      ! Material Cost {$}
  CostPerArea;                            ! Material Cost Units

OS:Material,
  {ac2465e6-5bab-4c0f-95bf-b8a2537fa4b4}, ! Handle
  GP01 1/2 GYPSUM 1,                      ! Name
  Smooth,                                 ! Roughness
  0.01271,                                ! Thickness {m}
  0.16,                                   ! Conductivity {W/m-K}
  800,                                    ! Density {kg/m3}
  1090,                                   ! Specific Heat {J/kg-K}
  0.9,                                    ! Thermal Absorptance
  0.7,                                    ! Solar Absorptance
  0.5;                                    ! Visible Absorptance

