
OS:Version,
  {28c74322-162a-4450-8a76-3ede51e1e0ff}, ! Handle
  0.9.3;                                  ! Version Identifier

OS:WindowMaterial:Glazing,
  {75968245-4a24-4d42-825f-00861f4f4eb2}, ! Handle
  Theoretical Glass [667],                ! Name
  SpectralAverage,                        ! Optical Data Type
  ,                                       ! Window Glass Spectral Data Set Name
  0.003,                                  ! Thickness {m}
  0.351757,                               ! Solar Transmittance at Normal Incidence
  0.598243,                               ! Front Side Solar Reflectance at Normal Incidence
  0.598243,                               ! Back Side Solar Reflectance at Normal Incidence
  0.360158,                               ! Visible Transmittance at Normal Incidence
  0.589842,                               ! Front Side Visible Reflectance at Normal Incidence
  0.589842,                               ! Back Side Visible Reflectance at Normal Incidence
  0,                                      ! Infrared Transmittance at Normal Incidence
  0.84,                                   ! Front Side Infrared Hemispherical Emissivity
  0.84,                                   ! Back Side Infrared Hemispherical Emissivity
  0.0305466;                              ! Conductivity {W/m-K}

OS:Construction,
  {9c20c9a4-12b5-4834-906b-0c3adb7ada73}, ! Handle
  Title 24-2008 Nonres 2 Skylight without Curb, ! Name
  ,                                       ! Surface Rendering Name
  {75968245-4a24-4d42-825f-00861f4f4eb2}; ! Layer 1

OS:ComponentCost:LineItem,
  {8c0f26aa-b1e6-4c3e-ad24-84c6ba451697}, ! Handle
  Title 24-2008 Nonres 2 Skylight without Curb, ! Name
  ,                                       ! Type
  Construction,                           ! Line Item Type
  Title 24-2008 Nonres 2 Skylight without Curb, ! Item Name
  ,                                       ! Object End Use Key
  ,                                       ! Quantity {dimensionless}
  529.667,                                ! Material Cost {$}
  CostPerArea;                            ! Material Cost Units

