
OS:Version,
  {b699d288-77ec-4280-95f8-2dce7b815ae9}, ! Handle
  0.9.3;                                  ! Version Identifier

OS:Material,
  {5db8abe1-4f76-4208-b8ca-6a088830c744}, ! Handle
  Metal Decking,                          ! Name
  MediumSmooth,                           ! Roughness
  0.001524,                               ! Thickness {m}
  45.006,                                 ! Conductivity {W/m-K}
  7680,                                   ! Density {kg/m3}
  418.4,                                  ! Specific Heat {J/kg-K}
  0.9,                                    ! Thermal Absorptance
  0.7,                                    ! Solar Absorptance
  0.3;                                    ! Visible Absorptance

OS:Material,
  {3a797073-d27d-4573-974a-eb5398a3806f}, ! Handle
  Roof Membrane,                          ! Name
  VeryRough,                              ! Roughness
  0.0095,                                 ! Thickness {m}
  0.16,                                   ! Conductivity {W/m-K}
  1121.29,                                ! Density {kg/m3}
  1460,                                   ! Specific Heat {J/kg-K}
  0.9,                                    ! Thermal Absorptance
  0.7,                                    ! Solar Absorptance
  0.7;                                    ! Visible Absorptance

OS:Construction,
  {20317558-9a19-4c2f-b829-5b63f6ede04a}, ! Handle
  90.1-2004 Res 3C Roof IEAD,             ! Name
  ,                                       ! Surface Rendering Name
  {3a797073-d27d-4573-974a-eb5398a3806f}, ! Layer 1
  {2b54e721-e698-4700-a5f2-f8b367b8609e}, ! Layer 2
  {5db8abe1-4f76-4208-b8ca-6a088830c744}; ! Layer 3

OS:Material,
  {2b54e721-e698-4700-a5f2-f8b367b8609e}, ! Handle
  Roof Insulation,                        ! Name
  MediumRough,                            ! Roughness
  0.124958,                               ! Thickness {m}
  0.049,                                  ! Conductivity {W/m-K}
  265,                                    ! Density {kg/m3}
  836.8,                                  ! Specific Heat {J/kg-K}
  0.9,                                    ! Thermal Absorptance
  0.7,                                    ! Solar Absorptance
  0.7;                                    ! Visible Absorptance

OS:ComponentCost:LineItem,
  {174fd085-5856-4bbb-9510-a9439524eadb}, ! Handle
  90.1-2004 Res 3C Roof IEAD,             ! Name
  ,                                       ! Type
  Construction,                           ! Line Item Type
  90.1-2004 Res 3C Roof IEAD,             ! Item Name
  ,                                       ! Object End Use Key
  ,                                       ! Quantity {dimensionless}
  49.208,                                 ! Material Cost {$}
  CostPerArea;                            ! Material Cost Units

