
OS:Version,
  {9509bb11-f1af-4d7b-8959-b0ffc5711610}, ! Handle
  0.9.3;                                  ! Version Identifier

OS:Construction,
  {1daac087-79a4-4bae-a731-3bfb68d638c9}, ! Handle
  AEDG SHC Nonres 2A Skylight without Curb, ! Name
  ,                                       ! Surface Rendering Name
  {4d023c7e-1cb1-43cc-81dd-4f02ee76afa0}; ! Layer 1

OS:WindowMaterial:Glazing,
  {4d023c7e-1cb1-43cc-81dd-4f02ee76afa0}, ! Handle
  Theoretical Glass [238],                ! Name
  SpectralAverage,                        ! Optical Data Type
  ,                                       ! Window Glass Spectral Data Set Name
  0.003,                                  ! Thickness {m}
  0.334238,                               ! Solar Transmittance at Normal Incidence
  0.615762,                               ! Front Side Solar Reflectance at Normal Incidence
  0.615762,                               ! Back Side Solar Reflectance at Normal Incidence
  0.3507,                                 ! Visible Transmittance at Normal Incidence
  0.5993,                                 ! Front Side Visible Reflectance at Normal Incidence
  0.5993,                                 ! Back Side Visible Reflectance at Normal Incidence
  0,                                      ! Infrared Transmittance at Normal Incidence
  0.9,                                    ! Front Side Infrared Hemispherical Emissivity
  0.9,                                    ! Back Side Infrared Hemispherical Emissivity
  0.0414918;                              ! Conductivity {W/m-K}

OS:ComponentCost:LineItem,
  {895a0ecb-ddaf-4017-8678-ec9386f16d10}, ! Handle
  AEDG SHC Nonres 2A Skylight without Curb, ! Name
  ,                                       ! Type
  Construction,                           ! Line Item Type
  AEDG SHC Nonres 2A Skylight without Curb, ! Item Name
  ,                                       ! Object End Use Key
  ,                                       ! Quantity {dimensionless}
  0,                                      ! Material Cost {$}
  CostPerArea;                            ! Material Cost Units

