
OS:Version,
  {5276d039-e842-4243-94a2-0282b25b6416}, ! Handle
  0.9.3;                                  ! Version Identifier

OS:ComponentCost:LineItem,
  {d0228953-dca6-4497-b5ba-bc8519526e81}, ! Handle
  AEDG K12 Nonres 8A Door Non-Swinging,   ! Name
  ,                                       ! Type
  Construction,                           ! Line Item Type
  AEDG K12 Nonres 8A Door Non-Swinging,   ! Item Name
  ,                                       ! Object End Use Key
  ,                                       ! Quantity {dimensionless}
  0,                                      ! Material Cost {$}
  CostPerArea;                            ! Material Cost Units

OS:Material,
  {86f49fde-4345-4076-a670-1c92398ba28e}, ! Handle
  METAL Door Medium 18Ga_1,               ! Name
  Smooth,                                 ! Roughness
  0.0013106,                              ! Thickness {m}
  45.3149,                                ! Conductivity {W/m-K}
  7833.03,                                ! Density {kg/m3}
  502.08,                                 ! Specific Heat {J/kg-K}
  0.8,                                    ! Thermal Absorptance
  0.5,                                    ! Solar Absorptance
  0.5;                                    ! Visible Absorptance

OS:Material:NoMass,
  {1395808a-8ea3-4cc4-b6db-7748a635b305}, ! Handle
  AIR [2],                                ! Name
  Smooth,                                 ! Roughness
  0.352085,                               ! Thermal Resistance {m2-K/W}
  0.8,                                    ! Thermal Absorptance
  0.5,                                    ! Solar Absorptance
  0.5;                                    ! Visible Absorptance

OS:Material,
  {7cf1466a-2871-457d-baf0-bb18036579e9}, ! Handle
  METAL Door Medium 18Ga_2,               ! Name
  Smooth,                                 ! Roughness
  0.0013106,                              ! Thickness {m}
  45.3149,                                ! Conductivity {W/m-K}
  7833.03,                                ! Density {kg/m3}
  502.08,                                 ! Specific Heat {J/kg-K}
  0.8,                                    ! Thermal Absorptance
  0.5,                                    ! Solar Absorptance
  0.5;                                    ! Visible Absorptance

OS:Construction,
  {79e812c6-41ca-4673-afaf-c8be4ba53fad}, ! Handle
  AEDG K12 Nonres 8A Door Non-Swinging,   ! Name
  ,                                       ! Surface Rendering Name
  {86f49fde-4345-4076-a670-1c92398ba28e}, ! Layer 1
  {1395808a-8ea3-4cc4-b6db-7748a635b305}, ! Layer 2
  {7cf1466a-2871-457d-baf0-bb18036579e9}; ! Layer 3

