
OS:Version,
  {923d3590-3630-4390-b512-456e997e0b2f}, ! Handle
  0.9.3;                                  ! Version Identifier

OS:Material,
  {dcb1b7ec-585a-4b79-bbfa-a970cd84ee99}, ! Handle
  1IN Wood Decking,                       ! Name
  MediumSmooth,                           ! Roughness
  0.0254,                                 ! Thickness {m}
  0.1211,                                 ! Conductivity {W/m-K}
  593,                                    ! Density {kg/m3}
  2510,                                   ! Specific Heat {J/kg-K}
  0.9,                                    ! Thermal Absorptance
  0.78,                                   ! Solar Absorptance
  0.78;                                   ! Visible Absorptance

OS:Material,
  {bcc32c77-df7a-44c9-bd61-ed504a29a556}, ! Handle
  Roof Insulation [2],                    ! Name
  MediumRough,                            ! Roughness
  0.221604,                               ! Thickness {m}
  0.049,                                  ! Conductivity {W/m-K}
  265,                                    ! Density {kg/m3}
  836.8,                                  ! Specific Heat {J/kg-K}
  0.9,                                    ! Thermal Absorptance
  0.7,                                    ! Solar Absorptance
  0.7;                                    ! Visible Absorptance

OS:Material,
  {9dbed9dd-564a-4f09-bec9-386b625fe065}, ! Handle
  Wood Shingles,                          ! Name
  VeryRough,                              ! Roughness
  0.0178,                                 ! Thickness {m}
  0.115,                                  ! Conductivity {W/m-K}
  513,                                    ! Density {kg/m3}
  1255,                                   ! Specific Heat {J/kg-K}
  0.9,                                    ! Thermal Absorptance
  0.78,                                   ! Solar Absorptance
  0.78;                                   ! Visible Absorptance

OS:Construction,
  {44af18d5-99fd-4a1a-a193-54d87a93ef3c}, ! Handle
  90.1-2004 Nonres 2A Roof Attic and Other, ! Name
  ,                                       ! Surface Rendering Name
  {9dbed9dd-564a-4f09-bec9-386b625fe065}, ! Layer 1
  {dcb1b7ec-585a-4b79-bbfa-a970cd84ee99}, ! Layer 2
  {bcc32c77-df7a-44c9-bd61-ed504a29a556}, ! Layer 3
  {b130f487-3f8d-4a5d-8cf5-d1cc804514b7}; ! Layer 4

OS:Material,
  {b130f487-3f8d-4a5d-8cf5-d1cc804514b7}, ! Handle
  1/2IN Gypsum,                           ! Name
  Smooth,                                 ! Roughness
  0.01271,                                ! Thickness {m}
  0.16,                                   ! Conductivity {W/m-K}
  784.9,                                  ! Density {kg/m3}
  830,                                    ! Specific Heat {J/kg-K}
  0.9,                                    ! Thermal Absorptance
  0.92,                                   ! Solar Absorptance
  0.92;                                   ! Visible Absorptance

OS:ComponentCost:LineItem,
  {2629f566-9d89-4794-a81c-ef375fdb33ee}, ! Handle
  90.1-2004 Nonres 2A Roof Attic and Other, ! Name
  ,                                       ! Type
  Construction,                           ! Line Item Type
  90.1-2004 Nonres 2A Roof Attic and Other, ! Item Name
  ,                                       ! Object End Use Key
  ,                                       ! Quantity {dimensionless}
  33.39,                                  ! Material Cost {$}
  CostPerArea;                            ! Material Cost Units

