
OS:Version,
  {bdbaae1f-caf6-4e0c-a587-ba29c1911bf3}, ! Handle
  0.9.3;                                  ! Version Identifier

OS:Construction,
  {06760e3e-e8f3-4412-84b6-dc56e32d9062}, ! Handle
  90.1-2004 Nonres 2A Roof Attic and Other, ! Name
  ,                                       ! Surface Rendering Name
  {0ca8e234-8949-4df3-8ad4-2f05a4ef9394}, ! Layer 1
  {b78ffc0d-17c7-40d2-8f98-7b05b7ae003d}, ! Layer 2
  {92ce27d5-1a8d-40d5-92cf-8dbef624955a}, ! Layer 3
  {fd799a27-10d3-476d-8204-00a000e5f24f}; ! Layer 4

OS:Material,
  {0ca8e234-8949-4df3-8ad4-2f05a4ef9394}, ! Handle
  Wood Shingles,                          ! Name
  VeryRough,                              ! Roughness
  0.0178,                                 ! Thickness {m}
  0.115,                                  ! Conductivity {W/m-K}
  513,                                    ! Density {kg/m3}
  1255,                                   ! Specific Heat {J/kg-K}
  0.9,                                    ! Thermal Absorptance
  0.78,                                   ! Solar Absorptance
  0.78;                                   ! Visible Absorptance

OS:Material,
  {b78ffc0d-17c7-40d2-8f98-7b05b7ae003d}, ! Handle
  1IN Wood Decking,                       ! Name
  MediumSmooth,                           ! Roughness
  0.0254,                                 ! Thickness {m}
  0.1211,                                 ! Conductivity {W/m-K}
  593,                                    ! Density {kg/m3}
  2510,                                   ! Specific Heat {J/kg-K}
  0.9,                                    ! Thermal Absorptance
  0.78,                                   ! Solar Absorptance
  0.78;                                   ! Visible Absorptance

OS:Material,
  {92ce27d5-1a8d-40d5-92cf-8dbef624955a}, ! Handle
  Roof Insulation [2],                    ! Name
  MediumRough,                            ! Roughness
  0.221604,                               ! Thickness {m}
  0.049,                                  ! Conductivity {W/m-K}
  265,                                    ! Density {kg/m3}
  836.8,                                  ! Specific Heat {J/kg-K}
  0.9,                                    ! Thermal Absorptance
  0.7,                                    ! Solar Absorptance
  0.7;                                    ! Visible Absorptance

OS:Material,
  {fd799a27-10d3-476d-8204-00a000e5f24f}, ! Handle
  1/2IN Gypsum,                           ! Name
  Smooth,                                 ! Roughness
  0.01271,                                ! Thickness {m}
  0.16,                                   ! Conductivity {W/m-K}
  784.9,                                  ! Density {kg/m3}
  830,                                    ! Specific Heat {J/kg-K}
  0.9,                                    ! Thermal Absorptance
  0.92,                                   ! Solar Absorptance
  0.92;                                   ! Visible Absorptance

OS:ComponentCost:LineItem,
  {d73f83e0-6948-4b8b-9dde-321ab65dd36d}, ! Handle
  90.1-2004 Nonres 2A Roof Attic and Other, ! Name
  ,                                       ! Type
  Construction,                           ! Line Item Type
  90.1-2004 Nonres 2A Roof Attic and Other, ! Item Name
  ,                                       ! Object End Use Key
  ,                                       ! Quantity {dimensionless}
  33.39,                                  ! Material Cost {$}
  CostPerArea;                            ! Material Cost Units

OS:ComponentData,
  {82714f0f-947d-4812-b119-c575f398881e}, ! Handle
  Component Data 1,                       ! Name
  {147aa76c-18b4-4964-b07a-3dd2155422c3}, ! UUID
  {0b722510-2960-4c0f-8c1f-787442387311}, ! Version UUID
  1363981636,                             ! Creation Timestamp
  1363981636,                             ! Version Timestamp
  {06760e3e-e8f3-4412-84b6-dc56e32d9062}, ! Name of Object 1
  {0ca8e234-8949-4df3-8ad4-2f05a4ef9394}, ! Name of Object 2
  {b78ffc0d-17c7-40d2-8f98-7b05b7ae003d}, ! Name of Object 3
  {92ce27d5-1a8d-40d5-92cf-8dbef624955a}, ! Name of Object 4
  {fd799a27-10d3-476d-8204-00a000e5f24f}, ! Name of Object 5
  {d73f83e0-6948-4b8b-9dde-321ab65dd36d}; ! Name of Object 6

