
OS:Version,
  {10a5a743-75be-46ea-a8bd-65411f118945}, !- Handle
  1.0.6;                                  !- Version Identifier

OS:WindowMaterial:Glazing,
  {66f62f76-03da-4a6e-a5ab-2930389e109e}, !- Handle
  189.1-2011 NONRES 2A METAL FRAMING ENTRANCE DOOR THEORETICAL GLAZING, !- Name
  SpectralAverage,                        !- Optical Data Type
  ,                                       !- Window Glass Spectral Data Set Name
  0.002,                                  !- Thickness {m}
  0.10958,                                !- Solar Transmittance at Normal Incidence
  0.41444,                                !- Front Side Solar Reflectance at Normal Incidence
  0.41444,                                !- Back Side Solar Reflectance at Normal Incidence
  0.10958,                                !- Visible Transmittance at Normal Incidence
  0.41444,                                !- Front Side Visible Reflectance at Normal Incidence
  0.41444,                                !- Back Side Visible Reflectance at Normal Incidence
  0,                                      !- Infrared Transmittance at Normal Incidence
  0.84,                                   !- Front Side Infrared Hemispherical Emissivity
  0.84,                                   !- Back Side Infrared Hemispherical Emissivity
  0.38102,                                !- Conductivity {W/m-K}
  1,                                      !- Dirt Correction Factor for Solar and Visible Transmittance
  No;                                     !- Solar Diffusing

OS:Construction,
  {42aa02aa-d105-4e3d-a70a-188a2ee1ea27}, !- Handle
  189.1-2011 NONRES 2A METAL FRAMING ENTRANCE DOOR, !- Name
  ,                                       !- Surface Rendering Name
  {66f62f76-03da-4a6e-a5ab-2930389e109e}; !- Layer 1

