
OS:Version,
  {b52be587-add2-4bb0-9907-b42b7ac0fc47}, ! Handle
  0.9.3;                                  ! Version Identifier

OS:Construction,
  {60ff3ef0-c70e-434c-b051-e4abe7e7c7a6}, ! Handle
  90.1 Windows Window Fixed 2618 Vnl-GrnSbe-Ins-Clr, ! Name
  ,                                       ! Surface Rendering Name
  {d22937e1-a934-457f-bafe-c14329dc69fd}; ! Layer 1

OS:WindowMaterial:Glazing,
  {d22937e1-a934-457f-bafe-c14329dc69fd}, ! Handle
  Theoretical Glass [482],                ! Name
  SpectralAverage,                        ! Optical Data Type
  ,                                       ! Window Glass Spectral Data Set Name
  0.003,                                  ! Thickness {m}
  0.266388,                               ! Solar Transmittance at Normal Incidence
  0.683612,                               ! Front Side Solar Reflectance at Normal Incidence
  0.683612,                               ! Back Side Solar Reflectance at Normal Incidence
  0.370537,                               ! Visible Transmittance at Normal Incidence
  0.579463,                               ! Front Side Visible Reflectance at Normal Incidence
  0.579463,                               ! Back Side Visible Reflectance at Normal Incidence
  0,                                      ! Infrared Transmittance at Normal Incidence
  0.9,                                    ! Front Side Infrared Hemispherical Emissivity
  0.9,                                    ! Back Side Infrared Hemispherical Emissivity
  0.00845731;                             ! Conductivity {W/m-K}

OS:ComponentCost:LineItem,
  {bcf6ee88-8ddd-40be-994b-3b13efd747a5}, ! Handle
  90.1 Windows Window Fixed 2618 Vnl-GrnSbe-Ins-Clr, ! Name
  ,                                       ! Type
  Construction,                           ! Line Item Type
  90.1 Windows Window Fixed 2618 Vnl-GrnSbe-Ins-Clr, ! Item Name
  ,                                       ! Object End Use Key
  ,                                       ! Quantity {dimensionless}
  0,                                      ! Material Cost {$}
  CostPerArea;                            ! Material Cost Units

