
OS:Version,
  {9a7b3870-44f8-468b-bcc3-ebba1177cf30}, ! Handle
  0.9.3;                                  ! Version Identifier

OS:Material,
  {e736d633-b5cb-43f4-823b-412578a3c164}, ! Handle
  1IN Wood Decking,                       ! Name
  MediumSmooth,                           ! Roughness
  0.0254,                                 ! Thickness {m}
  0.1211,                                 ! Conductivity {W/m-K}
  593,                                    ! Density {kg/m3}
  2510,                                   ! Specific Heat {J/kg-K}
  0.9,                                    ! Thermal Absorptance
  0.78,                                   ! Solar Absorptance
  0.78;                                   ! Visible Absorptance

OS:Construction,
  {4d1d8902-a08f-4108-8abd-2ae811eaf9a9}, ! Handle
  90.1-2001 Nonres B15 Roof Attic and Other, ! Name
  ,                                       ! Surface Rendering Name
  {a435c905-adf5-47c2-89ef-18515af7bb10}, ! Layer 1
  {e736d633-b5cb-43f4-823b-412578a3c164}, ! Layer 2
  {7c644510-1f69-4bde-9548-a18372857240}, ! Layer 3
  {66891b26-0697-4d83-bf76-d0e13280ea1d}; ! Layer 4

OS:Material,
  {a435c905-adf5-47c2-89ef-18515af7bb10}, ! Handle
  Wood Shingles,                          ! Name
  VeryRough,                              ! Roughness
  0.0178,                                 ! Thickness {m}
  0.115,                                  ! Conductivity {W/m-K}
  513,                                    ! Density {kg/m3}
  1255,                                   ! Specific Heat {J/kg-K}
  0.9,                                    ! Thermal Absorptance
  0.78,                                   ! Solar Absorptance
  0.78;                                   ! Visible Absorptance

OS:Material,
  {7c644510-1f69-4bde-9548-a18372857240}, ! Handle
  Roof Insulation [2],                    ! Name
  MediumRough,                            ! Roughness
  0.221604,                               ! Thickness {m}
  0.049,                                  ! Conductivity {W/m-K}
  265,                                    ! Density {kg/m3}
  836.8,                                  ! Specific Heat {J/kg-K}
  0.9,                                    ! Thermal Absorptance
  0.7,                                    ! Solar Absorptance
  0.7;                                    ! Visible Absorptance

OS:Material,
  {66891b26-0697-4d83-bf76-d0e13280ea1d}, ! Handle
  1/2IN Gypsum,                           ! Name
  Smooth,                                 ! Roughness
  0.01271,                                ! Thickness {m}
  0.16,                                   ! Conductivity {W/m-K}
  784.9,                                  ! Density {kg/m3}
  830,                                    ! Specific Heat {J/kg-K}
  0.9,                                    ! Thermal Absorptance
  0.92,                                   ! Solar Absorptance
  0.92;                                   ! Visible Absorptance

OS:ComponentCost:LineItem,
  {d2329743-f8bb-47b3-999c-4f3c69c990e6}, ! Handle
  90.1-2001 Nonres B15 Roof Attic and Other, ! Name
  ,                                       ! Type
  Construction,                           ! Line Item Type
  90.1-2001 Nonres B15 Roof Attic and Other, ! Item Name
  ,                                       ! Object End Use Key
  ,                                       ! Quantity {dimensionless}
  33.39,                                  ! Material Cost {$}
  CostPerArea;                            ! Material Cost Units

