
OS:Version,
  {cd7fc5a9-dbeb-425e-ae3c-0d027e67e812}, ! Handle
  0.9.3;                                  ! Version Identifier

OS:Construction,
  {fcc24e63-2140-4ba7-bb78-12261dfdc375}, ! Handle
  90.1-2001 Nonres B15 Roof Attic and Other, ! Name
  ,                                       ! Surface Rendering Name
  {63a388da-2f6c-4a69-b260-c3e126932611}, ! Layer 1
  {4446308d-9534-4bad-80ff-c2c6284343b8}, ! Layer 2
  {c47bd431-bbc3-46b6-8624-0a54c991cc66}, ! Layer 3
  {31787f62-752b-453e-9421-21d2f40486fb}; ! Layer 4

OS:Material,
  {63a388da-2f6c-4a69-b260-c3e126932611}, ! Handle
  Wood Shingles,                          ! Name
  VeryRough,                              ! Roughness
  0.0178,                                 ! Thickness {m}
  0.115,                                  ! Conductivity {W/m-K}
  513,                                    ! Density {kg/m3}
  1255,                                   ! Specific Heat {J/kg-K}
  0.9,                                    ! Thermal Absorptance
  0.78,                                   ! Solar Absorptance
  0.78;                                   ! Visible Absorptance

OS:Material,
  {4446308d-9534-4bad-80ff-c2c6284343b8}, ! Handle
  1IN Wood Decking,                       ! Name
  MediumSmooth,                           ! Roughness
  0.0254,                                 ! Thickness {m}
  0.1211,                                 ! Conductivity {W/m-K}
  593,                                    ! Density {kg/m3}
  2510,                                   ! Specific Heat {J/kg-K}
  0.9,                                    ! Thermal Absorptance
  0.78,                                   ! Solar Absorptance
  0.78;                                   ! Visible Absorptance

OS:Material,
  {c47bd431-bbc3-46b6-8624-0a54c991cc66}, ! Handle
  Roof Insulation [2],                    ! Name
  MediumRough,                            ! Roughness
  0.221604,                               ! Thickness {m}
  0.049,                                  ! Conductivity {W/m-K}
  265,                                    ! Density {kg/m3}
  836.8,                                  ! Specific Heat {J/kg-K}
  0.9,                                    ! Thermal Absorptance
  0.7,                                    ! Solar Absorptance
  0.7;                                    ! Visible Absorptance

OS:Material,
  {31787f62-752b-453e-9421-21d2f40486fb}, ! Handle
  1/2IN Gypsum,                           ! Name
  Smooth,                                 ! Roughness
  0.01271,                                ! Thickness {m}
  0.16,                                   ! Conductivity {W/m-K}
  784.9,                                  ! Density {kg/m3}
  830,                                    ! Specific Heat {J/kg-K}
  0.9,                                    ! Thermal Absorptance
  0.92,                                   ! Solar Absorptance
  0.92;                                   ! Visible Absorptance

OS:ComponentCost:LineItem,
  {c03ad079-8829-480c-babd-1c3d350a40f4}, ! Handle
  90.1-2001 Nonres B15 Roof Attic and Other, ! Name
  ,                                       ! Type
  Construction,                           ! Line Item Type
  90.1-2001 Nonres B15 Roof Attic and Other, ! Item Name
  ,                                       ! Object End Use Key
  ,                                       ! Quantity {dimensionless}
  33.39,                                  ! Material Cost {$}
  CostPerArea;                            ! Material Cost Units

OS:ComponentData,
  {2dde2bf2-3692-49ad-ad81-3e737505a372}, ! Handle
  Component Data 1,                       ! Name
  {09b7f659-b2ac-4f98-b7dc-8462cdab5485}, ! UUID
  {91abd231-43da-4e6a-8669-8d81fde8064f}, ! Version UUID
  1363981368,                             ! Creation Timestamp
  1363981368,                             ! Version Timestamp
  {fcc24e63-2140-4ba7-bb78-12261dfdc375}, ! Name of Object 1
  {63a388da-2f6c-4a69-b260-c3e126932611}, ! Name of Object 2
  {4446308d-9534-4bad-80ff-c2c6284343b8}, ! Name of Object 3
  {c47bd431-bbc3-46b6-8624-0a54c991cc66}, ! Name of Object 4
  {31787f62-752b-453e-9421-21d2f40486fb}, ! Name of Object 5
  {c03ad079-8829-480c-babd-1c3d350a40f4}; ! Name of Object 6

