
OS:Version,
  {904707fc-b77d-424d-a737-d0a1c6e37cdd}, ! Handle
  0.9.3;                                  ! Version Identifier

OS:Construction,
  {e6222105-8816-4903-9be8-9801134ea9e0}, ! Handle
  90.1-2001 Res B12 Ext Wall Steel-Framed, ! Name
  ,                                       ! Surface Rendering Name
  {173d2a98-0d6b-4293-ad0b-367a147a17a8}, ! Layer 1
  {23033f6f-5a73-45d7-9a6e-33a32fc7d91d}, ! Layer 2
  {424cf908-fcb2-43ef-a9ab-74ea57df1132}; ! Layer 3

OS:Material:NoMass,
  {173d2a98-0d6b-4293-ad0b-367a147a17a8}, ! Handle
  MAT-SHEATH,                             ! Name
  Rough,                                  ! Roughness
  0.36256,                                ! Thermal Resistance {m2-K/W}
  0.9,                                    ! Thermal Absorptance
  0.7,                                    ! Solar Absorptance
  0.7;                                    ! Visible Absorptance

OS:Material,
  {23033f6f-5a73-45d7-9a6e-33a32fc7d91d}, ! Handle
  Wall Insulation [1],                    ! Name
  MediumRough,                            ! Roughness
  0.0373223,                              ! Thickness {m}
  0.045,                                  ! Conductivity {W/m-K}
  265,                                    ! Density {kg/m3}
  836.8,                                  ! Specific Heat {J/kg-K}
  0.9,                                    ! Thermal Absorptance
  0.7,                                    ! Solar Absorptance
  0.7;                                    ! Visible Absorptance

OS:Material,
  {424cf908-fcb2-43ef-a9ab-74ea57df1132}, ! Handle
  1/2IN Gypsum,                           ! Name
  Smooth,                                 ! Roughness
  0.01271,                                ! Thickness {m}
  0.16,                                   ! Conductivity {W/m-K}
  784.9,                                  ! Density {kg/m3}
  830,                                    ! Specific Heat {J/kg-K}
  0.9,                                    ! Thermal Absorptance
  0.92,                                   ! Solar Absorptance
  0.92;                                   ! Visible Absorptance

OS:ComponentCost:LineItem,
  {273cf077-d753-4c3d-85ce-fd3c5963dab1}, ! Handle
  90.1-2001 Res B12 Ext Wall Steel-Framed, ! Name
  ,                                       ! Type
  Construction,                           ! Line Item Type
  90.1-2001 Res B12 Ext Wall Steel-Framed, ! Item Name
  ,                                       ! Object End Use Key
  ,                                       ! Quantity {dimensionless}
  87.08,                                  ! Material Cost {$}
  CostPerArea;                            ! Material Cost Units

