
! 
OS:Version,
  {9c37d538-db0d-4a47-9850-5bede7e76bd5}, !- Handle
  1.13.0;                                 !- Version Identifier


! {"nombreProductoCorto": "CLIMALIT PLUS con COOL LITE KNT 155 F2 6 (16 argon90%) 44.2", "codigoEAN": "", "handle": "5f7cefc3-ad42-4f7c-aa44-16c6192b6f47", "g": 0.38, "tV": 0.47, "u": 1.3, "nombreProducto": "CLIMALIT PLUS con COOL LITE KNT 155 F2 6 (16 argon90%) 44.2\nU:1.3 W/m2K - g:0.38 - Tv: 0.47"}
OS:WindowMaterial:SimpleGlazingSystem,
  {5f7cefc3-ad42-4f7c-aa44-16c6192b6f47}, !- Handle
  CLIMALIT PLUS con COOL LITE KNT 155 F2 6 (16 argon90%) 44.2, !- Name
  1.3,                                    !- U-Factor {W/m2-K}
  0.38,                                    !- Solar Heat Gain Coefficient
  0.47;                                    !- Visible Transmittance     
  
  
OS:Construction,
  {ca667e4c-129e-48f8-9e32-e51a4abb8ca5}, !- Handle
  CLIMALIT PLUS con COOL LITE KNT 155 F2 6 (16 argon90%) 44.2,                         !- Name
  ,                                       !- Surface Rendering Name
  {5f7cefc3-ad42-4f7c-aa44-16c6192b6f47}; !- Layer 1  

