
OS:Version,
  {2a1ec191-d3fa-4339-8ec2-6035364be7d5}, ! Handle
  0.9.3;                                  ! Version Identifier

OS:Construction,
  {bb0695e1-e13b-4209-b38b-7c0653d4c29e}, !- Handle
  CLIMALIT PLUS con COOL LITE KNT 155 F2 6 (16 argon90%) 44.2,                         !- Name
  ,                                       !- Surface Rendering Name
  {5f7cefc3-ad42-4f7c-aa44-16c6192b6f47}; !- Layer 1  
  



        
OS:WindowMaterial:SimpleGlazingSystem,
  {5f7cefc3-ad42-4f7c-aa44-16c6192b6f47}, !- Handle
  CLIMALIT PLUS con COOL LITE KNT 155 F2 6 (16 argon90%) 44.2, !- Name
  1.3,                                    !- U-Factor {W/m2-K}
  0.38,                                    !- Solar Heat Gain Coefficient
  0.47;                                    !- Visible Transmittance     


OS:ComponentCost:LineItem,
  {c5b724ae-873d-4baf-b467-faae4be339be}, ! Handle
  CLIMALIT PLUS con COOL LITE KNT 155 F2 6 (16 argon90%) 44.2,        ! Name
  ,                                       ! Type
  Construction,                           ! Line Item Type
  CLIMALIT PLUS con COOL LITE KNT 155 F2 6 (16 argon90%) 44.2,        ! Item Name
  ,                                       ! Object End Use Key
  ,                                       ! Quantity {dimensionless}
  600.0,                                ! Material Cost {$}
  CostPerArea;                            ! Material Cost Units



OS:ComponentData,
  {c8999a64-4984-4fc5-866f-e462921f0792}, ! Handle
  Component Data 1,                       ! Name
  {50fcb405-ffba-40b9-b13b-22b3f5a7e9b5}, ! UUID
  {3dcb30ef-4027-4cda-8d20-e3e8cf36a353}, ! Version UUID
  1487924013,                             ! Creation Timestamp
  1487924013,                             ! Version Timestamp
  {bb0695e1-e13b-4209-b38b-7c0653d4c29e}, ! Name of Object 1
  {5f7cefc3-ad42-4f7c-aa44-16c6192b6f47}, ! Name of Object 2
  {c5b724ae-873d-4baf-b467-faae4be339be}; ! Name of Object 3

  

