
OS:Version,
  {e3835d74-9475-4210-9cb2-c7b0305eff80}, ! Handle
  0.9.3;                                  ! Version Identifier

OS:Construction,
  {c101bc37-3364-42f7-99f0-d7490a1b26e5}, ! Handle
  90.1-2004 Nonres 5B Ext Slab Unheated - 8in Slab with Carpet, ! Name
  ,                                       ! Surface Rendering Name
  {eeb5e8ed-1a83-44dc-a465-03e327a4c4ab}, ! Layer 1
  {f065cb7f-b98c-4f6d-8cbb-e48acaab1d98}; ! Layer 2

OS:Material,
  {eeb5e8ed-1a83-44dc-a465-03e327a4c4ab}, ! Handle
  MAT-CC05 8 HW CONCRETE,                 ! Name
  Rough,                                  ! Roughness
  0.20321,                                ! Thickness {m}
  1.311,                                  ! Conductivity {W/m-K}
  2240,                                   ! Density {kg/m3}
  836.8,                                  ! Specific Heat {J/kg-K}
  0.9,                                    ! Thermal Absorptance
  0.7,                                    ! Solar Absorptance
  0.7;                                    ! Visible Absorptance

OS:Material:NoMass,
  {f065cb7f-b98c-4f6d-8cbb-e48acaab1d98}, ! Handle
  CP02 CARPET PAD,                        ! Name
  VeryRough,                              ! Roughness
  0.21648,                                ! Thermal Resistance {m2-K/W}
  0.9,                                    ! Thermal Absorptance
  0.7,                                    ! Solar Absorptance
  0.8;                                    ! Visible Absorptance

OS:ComponentCost:LineItem,
  {a49c7b3b-c3db-470e-b2ae-ea58c5ea0b6a}, ! Handle
  90.1-2004 Nonres 5B Ext Slab Unheated - 8in Slab with Carpet, ! Name
  ,                                       ! Type
  Construction,                           ! Line Item Type
  90.1-2004 Nonres 5B Ext Slab Unheated - 8in Slab with Carpet, ! Item Name
  ,                                       ! Object End Use Key
  ,                                       ! Quantity {dimensionless}
  45.52,                                  ! Material Cost {$}
  CostPerArea;                            ! Material Cost Units

