
OS:Version,
  {1515e18e-ece9-48bf-97df-c092274f70f3}, ! Handle
  0.9.3;                                  ! Version Identifier

OS:Construction,
  {9f2c4e33-86a2-4a14-a490-1c3c2fd06f8d}, ! Handle
  90.1-2001 Nonres B24 Window Fixed,      ! Name
  ,                                       ! Surface Rendering Name
  {60f9fd82-b03f-4869-8171-1e25b1fa9c50}; ! Layer 1

OS:WindowMaterial:Glazing,
  {60f9fd82-b03f-4869-8171-1e25b1fa9c50}, ! Handle
  Theoretical Glass [44],                 ! Name
  SpectralAverage,                        ! Optical Data Type
  ,                                       ! Window Glass Spectral Data Set Name
  0.003,                                  ! Thickness {m}
  0.455617,                               ! Solar Transmittance at Normal Incidence
  0.494383,                               ! Front Side Solar Reflectance at Normal Incidence
  0.494383,                               ! Back Side Solar Reflectance at Normal Incidence
  0.493419,                               ! Visible Transmittance at Normal Incidence
  0.456581,                               ! Front Side Visible Reflectance at Normal Incidence
  0.456581,                               ! Back Side Visible Reflectance at Normal Incidence
  0,                                      ! Infrared Transmittance at Normal Incidence
  0.9,                                    ! Front Side Infrared Hemispherical Emissivity
  0.9,                                    ! Back Side Infrared Hemispherical Emissivity
  0.00882224;                             ! Conductivity {W/m-K}

OS:ComponentCost:LineItem,
  {110f8528-77ea-4477-b179-d47e8208d996}, ! Handle
  90.1-2001 Nonres B24 Window Fixed,      ! Name
  ,                                       ! Type
  Construction,                           ! Line Item Type
  90.1-2001 Nonres B24 Window Fixed,      ! Item Name
  ,                                       ! Object End Use Key
  ,                                       ! Quantity {dimensionless}
  619.19,                                 ! Material Cost {$}
  CostPerArea;                            ! Material Cost Units

