
OS:Version,
  {8af03688-c1a6-4860-9936-1e53a98bd7b6}, ! Handle
  0.9.3;                                  ! Version Identifier

OS:Construction,
  {416a3a72-de4d-41b0-8170-dcb87ba96b82}, ! Handle
  90.1-1999 Nonres B25 Skylight without Curb, ! Name
  ,                                       ! Surface Rendering Name
  {09005664-26fc-45e3-8aec-77fd553b1f98}; ! Layer 1

OS:WindowMaterial:Glazing,
  {09005664-26fc-45e3-8aec-77fd553b1f98}, ! Handle
  Theoretical Glass [52],                 ! Name
  SpectralAverage,                        ! Optical Data Type
  ,                                       ! Window Glass Spectral Data Set Name
  0.003,                                  ! Thickness {m}
  0.482947,                               ! Solar Transmittance at Normal Incidence
  0.467053,                               ! Front Side Solar Reflectance at Normal Incidence
  0.467053,                               ! Back Side Solar Reflectance at Normal Incidence
  0.529698,                               ! Visible Transmittance at Normal Incidence
  0.420302,                               ! Front Side Visible Reflectance at Normal Incidence
  0.420302,                               ! Back Side Visible Reflectance at Normal Incidence
  0,                                      ! Infrared Transmittance at Normal Incidence
  0.9,                                    ! Front Side Infrared Hemispherical Emissivity
  0.9,                                    ! Back Side Infrared Hemispherical Emissivity
  0.0185413;                              ! Conductivity {W/m-K}

OS:ComponentCost:LineItem,
  {5bb0a6a9-2fc6-4cb0-b293-0e2e6ccc51dc}, ! Handle
  90.1-1999 Nonres B25 Skylight without Curb, ! Name
  ,                                       ! Type
  Construction,                           ! Line Item Type
  90.1-1999 Nonres B25 Skylight without Curb, ! Item Name
  ,                                       ! Object End Use Key
  ,                                       ! Quantity {dimensionless}
  537.952,                                ! Material Cost {$}
  CostPerArea;                            ! Material Cost Units

