
OS:Version,
  {48ea4694-bc3e-4b99-bdec-0387aa20519c}, ! Handle
  0.9.3;                                  ! Version Identifier

OS:Construction,
  {591d92f1-7b2c-4226-9003-7e32e97b3791}, ! Handle
  189.1-2009 Nonres 7A Roof Attic and Other, ! Name
  ,                                       ! Surface Rendering Name
  {fd81d13d-d1f1-44a1-8ecd-280891cdaad1}, ! Layer 1
  {dc6d748b-f8cb-4b2b-86e7-ebc2540fec79}, ! Layer 2
  {69a8f667-75ac-4380-8e0a-21a980ddf4ab}, ! Layer 3
  {0eb03b11-ed7d-446d-a3c3-fc8f67a17634}; ! Layer 4

OS:Material,
  {fd81d13d-d1f1-44a1-8ecd-280891cdaad1}, ! Handle
  Wood Shingles,                          ! Name
  VeryRough,                              ! Roughness
  0.0178,                                 ! Thickness {m}
  0.115,                                  ! Conductivity {W/m-K}
  513,                                    ! Density {kg/m3}
  1255,                                   ! Specific Heat {J/kg-K}
  0.9,                                    ! Thermal Absorptance
  0.78,                                   ! Solar Absorptance
  0.78;                                   ! Visible Absorptance

OS:Material,
  {dc6d748b-f8cb-4b2b-86e7-ebc2540fec79}, ! Handle
  1IN Wood Decking,                       ! Name
  MediumSmooth,                           ! Roughness
  0.0254,                                 ! Thickness {m}
  0.1211,                                 ! Conductivity {W/m-K}
  593,                                    ! Density {kg/m3}
  2510,                                   ! Specific Heat {J/kg-K}
  0.9,                                    ! Thermal Absorptance
  0.78,                                   ! Solar Absorptance
  0.78;                                   ! Visible Absorptance

OS:Material,
  {69a8f667-75ac-4380-8e0a-21a980ddf4ab}, ! Handle
  Roof Insulation [28],                   ! Name
  MediumRough,                            ! Roughness
  0.456829,                               ! Thickness {m}
  0.049,                                  ! Conductivity {W/m-K}
  265,                                    ! Density {kg/m3}
  836.8,                                  ! Specific Heat {J/kg-K}
  0.9,                                    ! Thermal Absorptance
  0.7,                                    ! Solar Absorptance
  0.7;                                    ! Visible Absorptance

OS:Material,
  {0eb03b11-ed7d-446d-a3c3-fc8f67a17634}, ! Handle
  1/2IN Gypsum,                           ! Name
  Smooth,                                 ! Roughness
  0.01271,                                ! Thickness {m}
  0.16,                                   ! Conductivity {W/m-K}
  784.9,                                  ! Density {kg/m3}
  830,                                    ! Specific Heat {J/kg-K}
  0.9,                                    ! Thermal Absorptance
  0.92,                                   ! Solar Absorptance
  0.92;                                   ! Visible Absorptance

OS:ComponentCost:LineItem,
  {86672584-69c4-48d6-b113-eb327a297838}, ! Handle
  189.1-2009 Nonres 7A Roof Attic and Other, ! Name
  ,                                       ! Type
  Construction,                           ! Line Item Type
  189.1-2009 Nonres 7A Roof Attic and Other, ! Item Name
  ,                                       ! Object End Use Key
  ,                                       ! Quantity {dimensionless}
  38.18,                                  ! Material Cost {$}
  CostPerArea;                            ! Material Cost Units

