
OS:Version,
  {58325403-1638-4183-93dc-35851af4ec19}, ! Handle
  0.9.3;                                  ! Version Identifier

OS:Material,
  {5b602f26-5285-4d49-adb5-98708886773b}, ! Handle
  MAT-CC05 4 HW CONCRETE,                 ! Name
  Rough,                                  ! Roughness
  0.1016,                                 ! Thickness {m}
  1.311,                                  ! Conductivity {W/m-K}
  2240,                                   ! Density {kg/m3}
  836.8,                                  ! Specific Heat {J/kg-K}
  0.9,                                    ! Thermal Absorptance
  0.7,                                    ! Solar Absorptance
  0.7;                                    ! Visible Absorptance

OS:Material:NoMass,
  {1756e884-afa8-4cf5-91e7-4ef2714682d6}, ! Handle
  CP02 CARPET PAD,                        ! Name
  VeryRough,                              ! Roughness
  0.21648,                                ! Thermal Resistance {m2-K/W}
  0.9,                                    ! Thermal Absorptance
  0.7,                                    ! Solar Absorptance
  0.8;                                    ! Visible Absorptance

OS:Construction,
  {b941daab-d9a8-4e33-b7b8-ba3a71e0b4c8}, ! Handle
  90.1-2004 Nonres 7A Ext Slab Unheated - 4in Slab with Carpet, ! Name
  ,                                       ! Surface Rendering Name
  {5b602f26-5285-4d49-adb5-98708886773b}, ! Layer 1
  {1756e884-afa8-4cf5-91e7-4ef2714682d6}; ! Layer 2

OS:ComponentCost:LineItem,
  {88a86ae7-aa0c-4433-b9fe-b49a6c35b2b3}, ! Handle
  90.1-2004 Nonres 7A Ext Slab Unheated - 4in Slab with Carpet, ! Name
  ,                                       ! Type
  Construction,                           ! Line Item Type
  90.1-2004 Nonres 7A Ext Slab Unheated - 4in Slab with Carpet, ! Item Name
  ,                                       ! Object End Use Key
  ,                                       ! Quantity {dimensionless}
  45.52,                                  ! Material Cost {$}
  CostPerArea;                            ! Material Cost Units

