
OS:Version,
  {99caf4cf-0604-458e-a67c-a6c0ae7b831a}, !- Handle
  1.1.0;                                  !- Version Identifier

OS:Construction,
  {69498101-8d19-4962-a228-eb1472bbc2b9}, !- Handle
  Dbl Clr Low Iron 3mm/6mm Air,           !- Name
  ,                                       !- Surface Rendering Name
  {261f419a-4d1b-404a-9109-cf06adc17890}, !- Layer 1
  {03332683-dd9b-4050-bb09-22cfd9bd3bb7}, !- Layer 2
  {261f419a-4d1b-404a-9109-cf06adc17890}; !- Layer 3

OS:WindowMaterial:Glazing,
  {261f419a-4d1b-404a-9109-cf06adc17890}, !- Handle
  LOW IRON 3MM,                           !- Name
  SpectralAverage,                        !- Optical Data Type
  ,                                       !- Window Glass Spectral Data Set Name
  0.003,                                  !- Thickness {m}
  0.899,                                  !- Solar Transmittance at Normal Incidence
  0.079,                                  !- Front Side Solar Reflectance at Normal Incidence
  0.079,                                  !- Back Side Solar Reflectance at Normal Incidence
  0.913,                                  !- Visible Transmittance at Normal Incidence
  0.082,                                  !- Front Side Visible Reflectance at Normal Incidence
  0.082,                                  !- Back Side Visible Reflectance at Normal Incidence
  0,                                      !- Infrared Transmittance at Normal Incidence
  0.84,                                   !- Front Side Infrared Hemispherical Emissivity
  0.84,                                   !- Back Side Infrared Hemispherical Emissivity
  0.9;                                    !- Conductivity {W/m-K}

OS:WindowMaterial:Gas,
  {03332683-dd9b-4050-bb09-22cfd9bd3bb7}, !- Handle
  AIR 6MM,                                !- Name
  Air,                                    !- Gas Type
  0.0063;                                 !- Thickness {m}

