
OS:Version,
  {5421360c-91e3-4409-a48e-ec749e604ce4}, ! Handle
  0.9.3;                                  ! Version Identifier

OS:Material,
  {e54fca21-61fd-4eba-981e-7a9e8d95eaea}, ! Handle
  MAT-CC05 8 HW CONCRETE,                 ! Name
  Rough,                                  ! Roughness
  0.20321,                                ! Thickness {m}
  1.311,                                  ! Conductivity {W/m-K}
  2240,                                   ! Density {kg/m3}
  836.8,                                  ! Specific Heat {J/kg-K}
  0.9,                                    ! Thermal Absorptance
  0.7,                                    ! Solar Absorptance
  0.7;                                    ! Visible Absorptance

OS:Material:NoMass,
  {4276a28c-253f-40e8-8004-e8c57bad9a30}, ! Handle
  CP02 CARPET PAD,                        ! Name
  VeryRough,                              ! Roughness
  0.21648,                                ! Thermal Resistance {m2-K/W}
  0.9,                                    ! Thermal Absorptance
  0.7,                                    ! Solar Absorptance
  0.8;                                    ! Visible Absorptance

OS:ComponentCost:LineItem,
  {65f1de16-f65a-4a41-87a1-53a8ece2b3a1}, ! Handle
  90.1-2007 Res 6B Ext Slab Unheated - 8in Slab with Carpet, ! Name
  ,                                       ! Type
  Construction,                           ! Line Item Type
  90.1-2007 Res 6B Ext Slab Unheated - 8in Slab with Carpet, ! Item Name
  ,                                       ! Object End Use Key
  ,                                       ! Quantity {dimensionless}
  45.52,                                  ! Material Cost {$}
  CostPerArea;                            ! Material Cost Units

OS:Construction,
  {9bea7b38-fb14-41e3-ad4d-36be889b0974}, ! Handle
  90.1-2007 Res 6B Ext Slab Unheated - 8in Slab with Carpet, ! Name
  ,                                       ! Surface Rendering Name
  {e54fca21-61fd-4eba-981e-7a9e8d95eaea}, ! Layer 1
  {4276a28c-253f-40e8-8004-e8c57bad9a30}; ! Layer 2

