
OS:Version,
  {89259d08-9c87-4928-b1ce-4597c20d58c1}, ! Handle
  0.9.3;                                  ! Version Identifier

OS:Material,
  {238b51b7-8c4a-427b-ae76-96cdcd822456}, ! Handle
  Roof Insulation [105],                  ! Name
  MediumRough,                            ! Roughness
  0.164113,                               ! Thickness {m}
  0.049,                                  ! Conductivity {W/m-K}
  265,                                    ! Density {kg/m3}
  836.8,                                  ! Specific Heat {J/kg-K}
  0.9,                                    ! Thermal Absorptance
  0.7,                                    ! Solar Absorptance
  0.7;                                    ! Visible Absorptance

OS:Construction,
  {04718a47-153a-4aa8-acdf-25229dbd8b76}, ! Handle
  Title 24-2008 Nonres 1 Roof IEAD,       ! Name
  ,                                       ! Surface Rendering Name
  {03aebd0e-c63a-4294-9dff-b9d849494cab}, ! Layer 1
  {238b51b7-8c4a-427b-ae76-96cdcd822456}, ! Layer 2
  {f55353a2-fbf0-4d44-b971-29e2cc37959e}; ! Layer 3

OS:Material,
  {03aebd0e-c63a-4294-9dff-b9d849494cab}, ! Handle
  Roof Membrane [2],                      ! Name
  VeryRough,                              ! Roughness
  0.0095,                                 ! Thickness {m}
  0.16,                                   ! Conductivity {W/m-K}
  1121.29,                                ! Density {kg/m3}
  1460,                                   ! Specific Heat {J/kg-K}
  0.9,                                    ! Thermal Absorptance
  0.7,                                    ! Solar Absorptance
  0.85;                                   ! Visible Absorptance

OS:Material,
  {f55353a2-fbf0-4d44-b971-29e2cc37959e}, ! Handle
  Metal Decking,                          ! Name
  MediumSmooth,                           ! Roughness
  0.001524,                               ! Thickness {m}
  45.006,                                 ! Conductivity {W/m-K}
  7680,                                   ! Density {kg/m3}
  418.4,                                  ! Specific Heat {J/kg-K}
  0.9,                                    ! Thermal Absorptance
  0.7,                                    ! Solar Absorptance
  0.3;                                    ! Visible Absorptance

OS:ComponentCost:LineItem,
  {5fc22455-d9a4-486b-9a38-2bea9feb0fe5}, ! Handle
  Title 24-2008 Nonres 1 Roof IEAD,       ! Name
  ,                                       ! Type
  Construction,                           ! Line Item Type
  Title 24-2008 Nonres 1 Roof IEAD,       ! Item Name
  ,                                       ! Object End Use Key
  ,                                       ! Quantity {dimensionless}
  52.649,                                 ! Material Cost {$}
  CostPerArea;                            ! Material Cost Units

