
OS:Version,
  {e9e643cd-c0b3-4f6c-95b8-98c9553521b3}, ! Handle
  0.9.3;                                  ! Version Identifier

OS:Material,
  {162be4a8-5e0e-4a6e-900c-3273d9016322}, ! Handle
  8IN Concrete HW,                        ! Name
  MediumRough,                            ! Roughness
  0.2033,                                 ! Thickness {m}
  1.7296,                                 ! Conductivity {W/m-K}
  2243,                                   ! Density {kg/m3}
  837,                                    ! Specific Heat {J/kg-K}
  0.9,                                    ! Thermal Absorptance
  0.65,                                   ! Solar Absorptance
  0.65;                                   ! Visible Absorptance

OS:Material,
  {14178419-6c18-47e7-b6c1-daaf105b355b}, ! Handle
  Wall Insulation [4],                    ! Name
  MediumRough,                            ! Roughness
  0.0338606,                              ! Thickness {m}
  0.0432,                                 ! Conductivity {W/m-K}
  91,                                     ! Density {kg/m3}
  837,                                    ! Specific Heat {J/kg-K}
  0.9,                                    ! Thermal Absorptance
  0.5,                                    ! Solar Absorptance
  0.5;                                    ! Visible Absorptance

OS:ComponentCost:LineItem,
  {a46f058e-4c65-4ec9-a995-649ca1bade9a}, ! Handle
  90.1-1999 Nonres B14 Ext Wall Mass,     ! Name
  ,                                       ! Type
  Construction,                           ! Line Item Type
  90.1-1999 Nonres B14 Ext Wall Mass,     ! Item Name
  ,                                       ! Object End Use Key
  ,                                       ! Quantity {dimensionless}
  58.897,                                 ! Material Cost {$}
  CostPerArea;                            ! Material Cost Units

OS:Construction,
  {74755091-f26e-40bc-a854-07c56f76bdbc}, ! Handle
  90.1-1999 Nonres B14 Ext Wall Mass,     ! Name
  ,                                       ! Surface Rendering Name
  {f23f8072-97c9-4c4c-b6a0-dadc300f4cdf}, ! Layer 1
  {162be4a8-5e0e-4a6e-900c-3273d9016322}, ! Layer 2
  {14178419-6c18-47e7-b6c1-daaf105b355b}, ! Layer 3
  {ec06ced8-5492-4a08-8f1d-dd4cf9217357}; ! Layer 4

OS:Material,
  {f23f8072-97c9-4c4c-b6a0-dadc300f4cdf}, ! Handle
  1IN Stucco,                             ! Name
  Smooth,                                 ! Roughness
  0.0253,                                 ! Thickness {m}
  0.6918,                                 ! Conductivity {W/m-K}
  1858,                                   ! Density {kg/m3}
  837,                                    ! Specific Heat {J/kg-K}
  0.9,                                    ! Thermal Absorptance
  0.92,                                   ! Solar Absorptance
  0.92;                                   ! Visible Absorptance

OS:Material,
  {ec06ced8-5492-4a08-8f1d-dd4cf9217357}, ! Handle
  1/2IN Gypsum,                           ! Name
  Smooth,                                 ! Roughness
  0.01271,                                ! Thickness {m}
  0.16,                                   ! Conductivity {W/m-K}
  784.9,                                  ! Density {kg/m3}
  830,                                    ! Specific Heat {J/kg-K}
  0.9,                                    ! Thermal Absorptance
  0.92,                                   ! Solar Absorptance
  0.92;                                   ! Visible Absorptance

