
OS:Version,
  {3e442883-08dc-4409-afde-2144aaf6a65c}, ! Handle
  0.9.3;                                  ! Version Identifier

OS:Construction,
  {aee6584f-6a4c-41ac-b30b-191f73b2e026}, ! Handle
  90.1-1999 Nonres B10 Int Wall,          ! Name
  ,                                       ! Surface Rendering Name
  {fb772028-74fd-4e77-b565-23fdd840d021}, ! Layer 1
  {fb772028-74fd-4e77-b565-23fdd840d021}; ! Layer 2

OS:Material,
  {fb772028-74fd-4e77-b565-23fdd840d021}, ! Handle
  GP01 1/2 GYPSUM,                        ! Name
  Smooth,                                 ! Roughness
  0.01271,                                ! Thickness {m}
  0.16,                                   ! Conductivity {W/m-K}
  800,                                    ! Density {kg/m3}
  1090,                                   ! Specific Heat {J/kg-K}
  0.9,                                    ! Thermal Absorptance
  0.7,                                    ! Solar Absorptance
  0.5;                                    ! Visible Absorptance

OS:ComponentCost:LineItem,
  {e8780cef-c4ec-4a0d-985b-cbd57ac828d2}, ! Handle
  90.1-1999 Nonres B10 Int Wall,          ! Name
  ,                                       ! Type
  Construction,                           ! Line Item Type
  90.1-1999 Nonres B10 Int Wall,          ! Item Name
  ,                                       ! Object End Use Key
  ,                                       ! Quantity {dimensionless}
  0,                                      ! Material Cost {$}
  CostPerArea;                            ! Material Cost Units

OS:ComponentData,
  {13c9ab74-dd9e-43b6-8b86-2a304972fb5b}, ! Handle
  Component Data 1,                       ! Name
  {7b68a4de-8f8b-4685-84e8-793a157788ef}, ! UUID
  {22fabf1d-19b1-4db1-9a0f-4c696f92a153}, ! Version UUID
  1363981080,                             ! Creation Timestamp
  1363981080,                             ! Version Timestamp
  {aee6584f-6a4c-41ac-b30b-191f73b2e026}, ! Name of Object 1
  {fb772028-74fd-4e77-b565-23fdd840d021}, ! Name of Object 2
  {e8780cef-c4ec-4a0d-985b-cbd57ac828d2}; ! Name of Object 3

