
OS:Version,
  {61182eb6-f081-4032-87b0-c20395c74adc}, ! Handle
  0.9.3;                                  ! Version Identifier

OS:Construction,
  {82d9eb16-6303-4b07-bc70-fc214922b24f}, ! Handle
  189.1-2009 Nonres 2A Window Metal framing entrance door, ! Name
  ,                                       ! Surface Rendering Name
  {78de7a39-481b-4904-a8ef-6b00cbc2b782}; ! Layer 1

OS:WindowMaterial:Glazing,
  {78de7a39-481b-4904-a8ef-6b00cbc2b782}, ! Handle
  Theoretical Glass [172],                ! Name
  SpectralAverage,                        ! Optical Data Type
  ,                                       ! Window Glass Spectral Data Set Name
  0.003,                                  ! Thickness {m}
  0.238593,                               ! Solar Transmittance at Normal Incidence
  0.711407,                               ! Front Side Solar Reflectance at Normal Incidence
  0.711407,                               ! Back Side Solar Reflectance at Normal Incidence
  0.251212,                               ! Visible Transmittance at Normal Incidence
  0.698788,                               ! Front Side Visible Reflectance at Normal Incidence
  0.698788,                               ! Back Side Visible Reflectance at Normal Incidence
  0,                                      ! Infrared Transmittance at Normal Incidence
  0.93,                                   ! Front Side Infrared Hemispherical Emissivity
  0.93,                                   ! Back Side Infrared Hemispherical Emissivity
  0.288556;                               ! Conductivity {W/m-K}

OS:ComponentCost:LineItem,
  {1ead41b2-bb6b-4a21-887b-88f6177dc49e}, ! Handle
  189.1-2009 Nonres 2A Window Metal framing entrance door, ! Name
  ,                                       ! Type
  Construction,                           ! Line Item Type
  189.1-2009 Nonres 2A Window Metal framing entrance door, ! Item Name
  ,                                       ! Object End Use Key
  ,                                       ! Quantity {dimensionless}
  600.037,                                ! Material Cost {$}
  CostPerArea;                            ! Material Cost Units

OS:ComponentData,
  {b10cee10-3776-4e32-b2a1-1ab915dec69b}, ! Handle
  Component Data 1,                       ! Name
  {32d36474-5953-4646-a6e8-3d4e42de04c9}, ! UUID
  {7b78e638-9e5b-4792-8406-0bb6c99227be}, ! Version UUID
  1363979825,                             ! Creation Timestamp
  1363979825,                             ! Version Timestamp
  {82d9eb16-6303-4b07-bc70-fc214922b24f}, ! Name of Object 1
  {78de7a39-481b-4904-a8ef-6b00cbc2b782}, ! Name of Object 2
  {1ead41b2-bb6b-4a21-887b-88f6177dc49e}; ! Name of Object 3

