
OS:Version,
  {2d833820-03e6-41b4-98c3-e2511951f50a}, ! Handle
  0.9.3;                                  ! Version Identifier

OS:WindowMaterial:Glazing,
  {dbaf9f98-236a-44ca-95d0-097251358fd0}, ! Handle
  Theoretical Glass [172],                ! Name
  SpectralAverage,                        ! Optical Data Type
  ,                                       ! Window Glass Spectral Data Set Name
  0.003,                                  ! Thickness {m}
  0.238593,                               ! Solar Transmittance at Normal Incidence
  0.711407,                               ! Front Side Solar Reflectance at Normal Incidence
  0.711407,                               ! Back Side Solar Reflectance at Normal Incidence
  0.251212,                               ! Visible Transmittance at Normal Incidence
  0.698788,                               ! Front Side Visible Reflectance at Normal Incidence
  0.698788,                               ! Back Side Visible Reflectance at Normal Incidence
  0,                                      ! Infrared Transmittance at Normal Incidence
  0.93,                                   ! Front Side Infrared Hemispherical Emissivity
  0.93,                                   ! Back Side Infrared Hemispherical Emissivity
  0.288556;                               ! Conductivity {W/m-K}

OS:Construction,
  {4f0ab56e-ff0e-4f08-b3b1-5fc340ca65ef}, ! Handle
  189.1-2009 Nonres 2A Window Metal framing entrance door, ! Name
  ,                                       ! Surface Rendering Name
  {dbaf9f98-236a-44ca-95d0-097251358fd0}; ! Layer 1

OS:ComponentCost:LineItem,
  {ce531619-4d7c-4f72-88bd-c7d501814dcc}, ! Handle
  189.1-2009 Nonres 2A Window Metal framing entrance door, ! Name
  ,                                       ! Type
  Construction,                           ! Line Item Type
  189.1-2009 Nonres 2A Window Metal framing entrance door, ! Item Name
  ,                                       ! Object End Use Key
  ,                                       ! Quantity {dimensionless}
  600.037,                                ! Material Cost {$}
  CostPerArea;                            ! Material Cost Units

