
OS:Version,
  {d80cf7fc-2be6-4809-9d6b-6c855406a41c}, ! Handle
  0.9.3;                                  ! Version Identifier

OS:Material,
  {a0add06d-2a13-41f1-a79b-e60363f7ad51}, ! Handle
  1IN Wood Decking,                       ! Name
  MediumSmooth,                           ! Roughness
  0.0254,                                 ! Thickness {m}
  0.1211,                                 ! Conductivity {W/m-K}
  593,                                    ! Density {kg/m3}
  2510,                                   ! Specific Heat {J/kg-K}
  0.9,                                    ! Thermal Absorptance
  0.78,                                   ! Solar Absorptance
  0.78;                                   ! Visible Absorptance

OS:Construction,
  {0d161b8c-a24a-42a1-9ce6-588a444d2056}, ! Handle
  90.1-2001 Res B15 Roof Attic and Other, ! Name
  ,                                       ! Surface Rendering Name
  {76ce204a-e28e-4314-9a94-6b47846f09dc}, ! Layer 1
  {a0add06d-2a13-41f1-a79b-e60363f7ad51}, ! Layer 2
  {19832810-99f5-4ff8-bdd8-6b35d2c6fe07}, ! Layer 3
  {8ba6139c-4182-4c2e-b2bc-547a1648d540}; ! Layer 4

OS:Material,
  {76ce204a-e28e-4314-9a94-6b47846f09dc}, ! Handle
  Wood Shingles,                          ! Name
  VeryRough,                              ! Roughness
  0.0178,                                 ! Thickness {m}
  0.115,                                  ! Conductivity {W/m-K}
  513,                                    ! Density {kg/m3}
  1255,                                   ! Specific Heat {J/kg-K}
  0.9,                                    ! Thermal Absorptance
  0.78,                                   ! Solar Absorptance
  0.78;                                   ! Visible Absorptance

OS:Material,
  {19832810-99f5-4ff8-bdd8-6b35d2c6fe07}, ! Handle
  Roof Insulation [2],                    ! Name
  MediumRough,                            ! Roughness
  0.221604,                               ! Thickness {m}
  0.049,                                  ! Conductivity {W/m-K}
  265,                                    ! Density {kg/m3}
  836.8,                                  ! Specific Heat {J/kg-K}
  0.9,                                    ! Thermal Absorptance
  0.7,                                    ! Solar Absorptance
  0.7;                                    ! Visible Absorptance

OS:Material,
  {8ba6139c-4182-4c2e-b2bc-547a1648d540}, ! Handle
  1/2IN Gypsum,                           ! Name
  Smooth,                                 ! Roughness
  0.01271,                                ! Thickness {m}
  0.16,                                   ! Conductivity {W/m-K}
  784.9,                                  ! Density {kg/m3}
  830,                                    ! Specific Heat {J/kg-K}
  0.9,                                    ! Thermal Absorptance
  0.92,                                   ! Solar Absorptance
  0.92;                                   ! Visible Absorptance

OS:ComponentCost:LineItem,
  {39ad5a82-276f-4a6a-abbf-d2e462a4bda1}, ! Handle
  90.1-2001 Res B15 Roof Attic and Other, ! Name
  ,                                       ! Type
  Construction,                           ! Line Item Type
  90.1-2001 Res B15 Roof Attic and Other, ! Item Name
  ,                                       ! Object End Use Key
  ,                                       ! Quantity {dimensionless}
  33.39,                                  ! Material Cost {$}
  CostPerArea;                            ! Material Cost Units

