
OS:Version,
  {c4be4428-52b0-418f-acdc-a9671ccac9db}, ! Handle
  0.9.3;                                  ! Version Identifier

OS:Material,
  {74eb0a0b-b619-4c3e-bc0e-266a20454387}, ! Handle
  1IN Wood Decking,                       ! Name
  MediumSmooth,                           ! Roughness
  0.0254,                                 ! Thickness {m}
  0.1211,                                 ! Conductivity {W/m-K}
  593,                                    ! Density {kg/m3}
  2510,                                   ! Specific Heat {J/kg-K}
  0.9,                                    ! Thermal Absorptance
  0.78,                                   ! Solar Absorptance
  0.78;                                   ! Visible Absorptance

OS:Material,
  {314a7d65-6aa4-465f-9a2a-323567530ff3}, ! Handle
  1/2IN Gypsum,                           ! Name
  Smooth,                                 ! Roughness
  0.01271,                                ! Thickness {m}
  0.16,                                   ! Conductivity {W/m-K}
  784.9,                                  ! Density {kg/m3}
  830,                                    ! Specific Heat {J/kg-K}
  0.9,                                    ! Thermal Absorptance
  0.92,                                   ! Solar Absorptance
  0.92;                                   ! Visible Absorptance

OS:Construction,
  {bcc9b57a-f674-47a6-baaf-ab3910bfc7aa}, ! Handle
  90.1-1999 Nonres B12 Roof Attic and Other, ! Name
  ,                                       ! Surface Rendering Name
  {3985b3cb-8881-42e5-9b5c-0eff6bd8a6d7}, ! Layer 1
  {74eb0a0b-b619-4c3e-bc0e-266a20454387}, ! Layer 2
  {afe9d45f-7ec4-4191-94ed-d93571e9226f}, ! Layer 3
  {314a7d65-6aa4-465f-9a2a-323567530ff3}; ! Layer 4

OS:Material,
  {3985b3cb-8881-42e5-9b5c-0eff6bd8a6d7}, ! Handle
  Wood Shingles,                          ! Name
  VeryRough,                              ! Roughness
  0.0178,                                 ! Thickness {m}
  0.115,                                  ! Conductivity {W/m-K}
  513,                                    ! Density {kg/m3}
  1255,                                   ! Specific Heat {J/kg-K}
  0.9,                                    ! Thermal Absorptance
  0.78,                                   ! Solar Absorptance
  0.78;                                   ! Visible Absorptance

OS:Material,
  {afe9d45f-7ec4-4191-94ed-d93571e9226f}, ! Handle
  Roof Insulation [2],                    ! Name
  MediumRough,                            ! Roughness
  0.221604,                               ! Thickness {m}
  0.049,                                  ! Conductivity {W/m-K}
  265,                                    ! Density {kg/m3}
  836.8,                                  ! Specific Heat {J/kg-K}
  0.9,                                    ! Thermal Absorptance
  0.7,                                    ! Solar Absorptance
  0.7;                                    ! Visible Absorptance

OS:ComponentCost:LineItem,
  {fbb960fa-c6e4-420d-abc9-d4aa8e6b11bb}, ! Handle
  90.1-1999 Nonres B12 Roof Attic and Other, ! Name
  ,                                       ! Type
  Construction,                           ! Line Item Type
  90.1-1999 Nonres B12 Roof Attic and Other, ! Item Name
  ,                                       ! Object End Use Key
  ,                                       ! Quantity {dimensionless}
  33.39,                                  ! Material Cost {$}
  CostPerArea;                            ! Material Cost Units

