
OS:Version,
  {18ff154e-42dd-4461-99b3-ffcd6ad816ca}, ! Handle
  0.9.3;                                  ! Version Identifier

OS:Construction,
  {690bafb5-eec8-45c0-8800-3acc661ba0e6}, ! Handle
  189.1-2009 Res 8A Attic Floor,          ! Name
  ,                                       ! Surface Rendering Name
  {b1524e7f-70a1-404b-bfee-4870606c32cb}, ! Layer 1
  {227f61bb-0f76-45e4-ae3a-a1a11a86d16d}, ! Layer 2
  {5f066834-6fed-452b-a8b9-6899007c6eed}; ! Layer 3

OS:Material,
  {b1524e7f-70a1-404b-bfee-4870606c32cb}, ! Handle
  1/2IN Gypsum Top,                       ! Name
  Smooth,                                 ! Roughness
  0.01271,                                ! Thickness {m}
  0.16,                                   ! Conductivity {W/m-K}
  784.9,                                  ! Density {kg/m3}
  830,                                    ! Specific Heat {J/kg-K}
  0.9,                                    ! Thermal Absorptance
  0.92,                                   ! Solar Absorptance
  0.92;                                   ! Visible Absorptance

OS:Material,
  {227f61bb-0f76-45e4-ae3a-a1a11a86d16d}, ! Handle
  AtticFloor Insulation [5],              ! Name
  MediumRough,                            ! Roughness
  0.47417,                                ! Thickness {m}
  0.049,                                  ! Conductivity {W/m-K}
  265,                                    ! Density {kg/m3}
  836.8,                                  ! Specific Heat {J/kg-K}
  0.9,                                    ! Thermal Absorptance
  0.7,                                    ! Solar Absorptance
  0.7;                                    ! Visible Absorptance

OS:Material,
  {5f066834-6fed-452b-a8b9-6899007c6eed}, ! Handle
  1/2IN Gypsum Bottom,                    ! Name
  Smooth,                                 ! Roughness
  0.01271,                                ! Thickness {m}
  0.16,                                   ! Conductivity {W/m-K}
  784.9,                                  ! Density {kg/m3}
  830,                                    ! Specific Heat {J/kg-K}
  0.9,                                    ! Thermal Absorptance
  0.92,                                   ! Solar Absorptance
  0.92;                                   ! Visible Absorptance

OS:ComponentCost:LineItem,
  {b8d6ff6f-1f4d-4553-8f76-dc5144ab9b4c}, ! Handle
  189.1-2009 Res 8A Attic Floor,          ! Name
  ,                                       ! Type
  Construction,                           ! Line Item Type
  189.1-2009 Res 8A Attic Floor,          ! Item Name
  ,                                       ! Object End Use Key
  ,                                       ! Quantity {dimensionless}
  38.314,                                 ! Material Cost {$}
  CostPerArea;                            ! Material Cost Units

OS:ComponentData,
  {f3436c67-5a27-4289-8082-389ab0aeb603}, ! Handle
  Component Data 1,                       ! Name
  {bafd8e3e-c81e-41ea-a91b-6e255b75a321}, ! UUID
  {ab1efcdf-d2cf-4583-97d3-22af74c2af52}, ! Version UUID
  1363980987,                             ! Creation Timestamp
  1363980987,                             ! Version Timestamp
  {690bafb5-eec8-45c0-8800-3acc661ba0e6}, ! Name of Object 1
  {b1524e7f-70a1-404b-bfee-4870606c32cb}, ! Name of Object 2
  {227f61bb-0f76-45e4-ae3a-a1a11a86d16d}, ! Name of Object 3
  {5f066834-6fed-452b-a8b9-6899007c6eed}, ! Name of Object 4
  {b8d6ff6f-1f4d-4553-8f76-dc5144ab9b4c}; ! Name of Object 5

