
OS:Version,
  {102758ad-405d-488f-83b6-5318f53c7a1f}, ! Handle
  0.9.3;                                  ! Version Identifier

OS:Material,
  {e40c12b8-b65f-4762-bc1a-2d6279f7e7f7}, ! Handle
  1IN Stucco,                             ! Name
  Smooth,                                 ! Roughness
  0.0253,                                 ! Thickness {m}
  0.6918,                                 ! Conductivity {W/m-K}
  1858,                                   ! Density {kg/m3}
  837,                                    ! Specific Heat {J/kg-K}
  0.9,                                    ! Thermal Absorptance
  0.92,                                   ! Solar Absorptance
  0.92;                                   ! Visible Absorptance

OS:Material,
  {626115af-5335-40ad-a340-29ba679d41db}, ! Handle
  1/2IN Gypsum,                           ! Name
  Smooth,                                 ! Roughness
  0.01271,                                ! Thickness {m}
  0.16,                                   ! Conductivity {W/m-K}
  784.9,                                  ! Density {kg/m3}
  830,                                    ! Specific Heat {J/kg-K}
  0.9,                                    ! Thermal Absorptance
  0.92,                                   ! Solar Absorptance
  0.92;                                   ! Visible Absorptance

OS:Construction,
  {b50df59e-cdc7-4ee9-a776-b0b5333c0d21}, ! Handle
  189.1-2009 Res 3A Ext Wall Mass,        ! Name
  ,                                       ! Surface Rendering Name
  {e40c12b8-b65f-4762-bc1a-2d6279f7e7f7}, ! Layer 1
  {013ef62b-71cd-4b8c-b665-52eac6a0c1f2}, ! Layer 2
  {4e7d3fa2-0666-4142-aac4-1e6f22dd9c14}, ! Layer 3
  {626115af-5335-40ad-a340-29ba679d41db}; ! Layer 4

OS:Material,
  {013ef62b-71cd-4b8c-b665-52eac6a0c1f2}, ! Handle
  8IN Concrete HW,                        ! Name
  MediumRough,                            ! Roughness
  0.2033,                                 ! Thickness {m}
  1.7296,                                 ! Conductivity {W/m-K}
  2243,                                   ! Density {kg/m3}
  837,                                    ! Specific Heat {J/kg-K}
  0.9,                                    ! Thermal Absorptance
  0.65,                                   ! Solar Absorptance
  0.65;                                   ! Visible Absorptance

OS:Material,
  {4e7d3fa2-0666-4142-aac4-1e6f22dd9c14}, ! Handle
  Wall Insulation [37],                   ! Name
  MediumRough,                            ! Roughness
  0.0680962,                              ! Thickness {m}
  0.0432,                                 ! Conductivity {W/m-K}
  91,                                     ! Density {kg/m3}
  837,                                    ! Specific Heat {J/kg-K}
  0.9,                                    ! Thermal Absorptance
  0.5,                                    ! Solar Absorptance
  0.5;                                    ! Visible Absorptance

OS:ComponentCost:LineItem,
  {f99812a5-dfeb-466f-bf7a-52670b63b007}, ! Handle
  189.1-2009 Res 3A Ext Wall Mass,        ! Name
  ,                                       ! Type
  Construction,                           ! Line Item Type
  189.1-2009 Res 3A Ext Wall Mass,        ! Item Name
  ,                                       ! Object End Use Key
  ,                                       ! Quantity {dimensionless}
  65.864,                                 ! Material Cost {$}
  CostPerArea;                            ! Material Cost Units

