
! 
OS:Version,
  {b931843d-5409-43ea-9d81-bda9506faad6}, !- Handle
  1.13.0;                                 !- Version Identifier


! 
OS:Material,
  {c875069a-bebd-477b-9642-7bd654c38bfb}, !- Handle
  Aislamiento: TRASDOSADO
ISOVER: ECO037 (0.080 m)
R: 2.2 m2K/W,                             !- Name
  MediumRough,                                 !- Roughness
  0.08,                                    !- Thickness {m}
  0.037,                                    !- Conductivity {W/m-K}
  50.0,                                    !- Density {kg/m3}
  800.0,                                    !- Specific Heat {J/kg-K}
  0.9,                                    !- Thermal Absorptance
  0.6,                                    !- Solar Absorptance
  0.6;                                    !- Visible Absorptance

