
OS:Version,
  {bd07d424-b1d3-4b0d-a05b-eeff89f414a1}, ! Handle
  0.9.3;                                  ! Version Identifier

OS:Material,
  {3a082324-a5a5-4f9d-aca2-6804ad3c4c0b}, ! Handle
  AtticFloor Insulation [5],              ! Name
  MediumRough,                            ! Roughness
  0.47417,                                ! Thickness {m}
  0.049,                                  ! Conductivity {W/m-K}
  265,                                    ! Density {kg/m3}
  836.8,                                  ! Specific Heat {J/kg-K}
  0.9,                                    ! Thermal Absorptance
  0.7,                                    ! Solar Absorptance
  0.7;                                    ! Visible Absorptance

OS:ComponentCost:LineItem,
  {d2a5e807-4c27-421e-9577-b8a6a85cc74b}, ! Handle
  189.1-2009 Res 7A Attic Floor,          ! Name
  ,                                       ! Type
  Construction,                           ! Line Item Type
  189.1-2009 Res 7A Attic Floor,          ! Item Name
  ,                                       ! Object End Use Key
  ,                                       ! Quantity {dimensionless}
  38.314,                                 ! Material Cost {$}
  CostPerArea;                            ! Material Cost Units

OS:Material,
  {6b3bc676-8d9d-41af-9c09-f550f360aa84}, ! Handle
  1/2IN Gypsum Top,                       ! Name
  Smooth,                                 ! Roughness
  0.01271,                                ! Thickness {m}
  0.16,                                   ! Conductivity {W/m-K}
  784.9,                                  ! Density {kg/m3}
  830,                                    ! Specific Heat {J/kg-K}
  0.9,                                    ! Thermal Absorptance
  0.92,                                   ! Solar Absorptance
  0.92;                                   ! Visible Absorptance

OS:Construction,
  {a7ae3848-52f6-45d9-a9c7-17a951b71031}, ! Handle
  189.1-2009 Res 7A Attic Floor,          ! Name
  ,                                       ! Surface Rendering Name
  {6b3bc676-8d9d-41af-9c09-f550f360aa84}, ! Layer 1
  {3a082324-a5a5-4f9d-aca2-6804ad3c4c0b}, ! Layer 2
  {7280295a-9fd2-42a5-a6b9-c1e03fb4121a}; ! Layer 3

OS:Material,
  {7280295a-9fd2-42a5-a6b9-c1e03fb4121a}, ! Handle
  1/2IN Gypsum Bottom,                    ! Name
  Smooth,                                 ! Roughness
  0.01271,                                ! Thickness {m}
  0.16,                                   ! Conductivity {W/m-K}
  784.9,                                  ! Density {kg/m3}
  830,                                    ! Specific Heat {J/kg-K}
  0.9,                                    ! Thermal Absorptance
  0.92,                                   ! Solar Absorptance
  0.92;                                   ! Visible Absorptance

