
OS:Version,
  {4609c072-b840-4b72-9ccb-50cfc6e5b2e8}, ! Handle
  0.9.3;                                  ! Version Identifier

OS:Construction,
  {f59f080a-8db0-4e95-86f2-00c5618b8744}, ! Handle
  90.1-2001 Res B15 Ext Slab Unheated - 4in Slab without Carpet, ! Name
  ,                                       ! Surface Rendering Name
  {a85e1836-25ec-4505-b138-13a8979b3d0d}; ! Layer 1

OS:Material,
  {a85e1836-25ec-4505-b138-13a8979b3d0d}, ! Handle
  MAT-CC05 4 HW CONCRETE,                 ! Name
  Rough,                                  ! Roughness
  0.1016,                                 ! Thickness {m}
  1.311,                                  ! Conductivity {W/m-K}
  2240,                                   ! Density {kg/m3}
  836.8,                                  ! Specific Heat {J/kg-K}
  0.9,                                    ! Thermal Absorptance
  0.7,                                    ! Solar Absorptance
  0.7;                                    ! Visible Absorptance

OS:ComponentCost:LineItem,
  {4e6302e7-45b1-469c-af07-3158612c1fb0}, ! Handle
  90.1-2001 Res B15 Ext Slab Unheated - 4in Slab without Carpet, ! Name
  ,                                       ! Type
  Construction,                           ! Line Item Type
  90.1-2001 Res B15 Ext Slab Unheated - 4in Slab without Carpet, ! Item Name
  ,                                       ! Object End Use Key
  ,                                       ! Quantity {dimensionless}
  45.52,                                  ! Material Cost {$}
  CostPerArea;                            ! Material Cost Units

