
OS:Version,
  {d31894a4-1a77-4df4-8b17-6f7673a9342c}, ! Handle
  0.9.3;                                  ! Version Identifier

OS:ComponentCost:LineItem,
  {334d0166-2591-4bba-826c-6f5dcb9316a2}, ! Handle
  AEDG-SmOffice 6B Ext Wall Steel-Framed, ! Name
  ,                                       ! Type
  Construction,                           ! Line Item Type
  AEDG-SmOffice 6B Ext Wall Steel-Framed, ! Item Name
  ,                                       ! Object End Use Key
  ,                                       ! Quantity {dimensionless}
  94.657,                                 ! Material Cost {$}
  CostPerArea;                            ! Material Cost Units

OS:Construction,
  {ba2cb506-60b6-4469-98f8-5127705cb9cb}, ! Handle
  AEDG-SmOffice 6B Ext Wall Steel-Framed, ! Name
  ,                                       ! Surface Rendering Name
  {bd7087ce-f319-46af-9cd8-eeee31d60a09}, ! Layer 1
  {52afa5e8-0d15-477b-a5de-8aae5c09ad45}, ! Layer 2
  {55d080d3-c20a-4196-8344-462d61d0d5e1}; ! Layer 3

OS:Material:NoMass,
  {bd7087ce-f319-46af-9cd8-eeee31d60a09}, ! Handle
  MAT-SHEATH,                             ! Name
  Rough,                                  ! Roughness
  0.36256,                                ! Thermal Resistance {m2-K/W}
  0.9,                                    ! Thermal Absorptance
  0.7,                                    ! Solar Absorptance
  0.7;                                    ! Visible Absorptance

OS:Material,
  {52afa5e8-0d15-477b-a5de-8aae5c09ad45}, ! Handle
  Wall Insulation [10],                   ! Name
  MediumRough,                            ! Roughness
  0.0971136,                              ! Thickness {m}
  0.045,                                  ! Conductivity {W/m-K}
  265,                                    ! Density {kg/m3}
  836.8,                                  ! Specific Heat {J/kg-K}
  0.9,                                    ! Thermal Absorptance
  0.7,                                    ! Solar Absorptance
  0.7;                                    ! Visible Absorptance

OS:Material,
  {55d080d3-c20a-4196-8344-462d61d0d5e1}, ! Handle
  1/2IN Gypsum,                           ! Name
  Smooth,                                 ! Roughness
  0.01271,                                ! Thickness {m}
  0.16,                                   ! Conductivity {W/m-K}
  784.9,                                  ! Density {kg/m3}
  830,                                    ! Specific Heat {J/kg-K}
  0.9,                                    ! Thermal Absorptance
  0.92,                                   ! Solar Absorptance
  0.92;                                   ! Visible Absorptance

