
OS:Version,
  {4a927bc1-e89e-41f2-b51d-32cab0fef614}, ! Handle
  0.9.3;                                  ! Version Identifier

OS:Construction,
  {9f4e12e0-e2e2-432c-a0a7-869768e0e8d6}, ! Handle
  Title 24-2008 Nonres 15 Ext Wall Wood-Framed and Other, ! Name
  ,                                       ! Surface Rendering Name
  {660b3270-bad3-42bc-b648-3ca226bbb1f2}, ! Layer 1
  {ddc4f11c-815b-483b-ac46-c1ac4b395db9}, ! Layer 2
  {df4ae0e0-4f22-41d3-a1b0-db8e7c1d3fee}; ! Layer 3

OS:Material,
  {660b3270-bad3-42bc-b648-3ca226bbb1f2}, ! Handle
  Wood Siding,                            ! Name
  MediumSmooth,                           ! Roughness
  0.01,                                   ! Thickness {m}
  0.11,                                   ! Conductivity {W/m-K}
  544.62,                                 ! Density {kg/m3}
  1210,                                   ! Specific Heat {J/kg-K}
  0.9,                                    ! Thermal Absorptance
  0.78,                                   ! Solar Absorptance
  0.78;                                   ! Visible Absorptance

OS:Material,
  {ddc4f11c-815b-483b-ac46-c1ac4b395db9}, ! Handle
  Wall Insulation [159],                  ! Name
  MediumRough,                            ! Roughness
  0.0812,                                 ! Thickness {m}
  0.045,                                  ! Conductivity {W/m-K}
  265,                                    ! Density {kg/m3}
  836.8,                                  ! Specific Heat {J/kg-K}
  0.9,                                    ! Thermal Absorptance
  0.7,                                    ! Solar Absorptance
  0.7;                                    ! Visible Absorptance

OS:Material,
  {df4ae0e0-4f22-41d3-a1b0-db8e7c1d3fee}, ! Handle
  1/2IN Gypsum,                           ! Name
  Smooth,                                 ! Roughness
  0.01271,                                ! Thickness {m}
  0.16,                                   ! Conductivity {W/m-K}
  784.9,                                  ! Density {kg/m3}
  830,                                    ! Specific Heat {J/kg-K}
  0.9,                                    ! Thermal Absorptance
  0.92,                                   ! Solar Absorptance
  0.92;                                   ! Visible Absorptance

OS:ComponentCost:LineItem,
  {49ecde04-d5ed-449a-96e3-35dba787cf45}, ! Handle
  Title 24-2008 Nonres 15 Ext Wall Wood-Framed and Other, ! Name
  ,                                       ! Type
  Construction,                           ! Line Item Type
  Title 24-2008 Nonres 15 Ext Wall Wood-Framed and Other, ! Item Name
  ,                                       ! Object End Use Key
  ,                                       ! Quantity {dimensionless}
  140.526,                                ! Material Cost {$}
  CostPerArea;                            ! Material Cost Units

OS:ComponentData,
  {e2515262-5aa4-4605-b748-e40a55710ffd}, ! Handle
  Component Data 1,                       ! Name
  {34caa1b5-0747-49a2-8b2c-f03618cce6b1}, ! UUID
  {9c072a5d-f0ac-410f-b593-4a507aa30bac}, ! Version UUID
  1363982113,                             ! Creation Timestamp
  1363982113,                             ! Version Timestamp
  {9f4e12e0-e2e2-432c-a0a7-869768e0e8d6}, ! Name of Object 1
  {660b3270-bad3-42bc-b648-3ca226bbb1f2}, ! Name of Object 2
  {ddc4f11c-815b-483b-ac46-c1ac4b395db9}, ! Name of Object 3
  {df4ae0e0-4f22-41d3-a1b0-db8e7c1d3fee}, ! Name of Object 4
  {49ecde04-d5ed-449a-96e3-35dba787cf45}; ! Name of Object 5

