
OS:Version,
  {06f07f20-019a-4ece-9c42-70e17276ab5b}, ! Handle
  0.9.3;                                  ! Version Identifier

OS:Construction,
  {b3eac570-6fe1-40fd-b18e-f8f0257a772c}, ! Handle
  Title 24-2008 Nonres 15 Ext Wall Wood-Framed and Other, ! Name
  ,                                       ! Surface Rendering Name
  {850ecec6-58a6-4d8d-be47-d7de318447a9}, ! Layer 1
  {9f2739ca-191c-400a-9405-737df5467969}, ! Layer 2
  {2889b6fe-7e1b-4fa0-a5c4-f7442d4e8ff3}; ! Layer 3

OS:Material,
  {850ecec6-58a6-4d8d-be47-d7de318447a9}, ! Handle
  Wood Siding,                            ! Name
  MediumSmooth,                           ! Roughness
  0.01,                                   ! Thickness {m}
  0.11,                                   ! Conductivity {W/m-K}
  544.62,                                 ! Density {kg/m3}
  1210,                                   ! Specific Heat {J/kg-K}
  0.9,                                    ! Thermal Absorptance
  0.78,                                   ! Solar Absorptance
  0.78;                                   ! Visible Absorptance

OS:Material,
  {9f2739ca-191c-400a-9405-737df5467969}, ! Handle
  Wall Insulation [159],                  ! Name
  MediumRough,                            ! Roughness
  0.0812,                                 ! Thickness {m}
  0.045,                                  ! Conductivity {W/m-K}
  265,                                    ! Density {kg/m3}
  836.8,                                  ! Specific Heat {J/kg-K}
  0.9,                                    ! Thermal Absorptance
  0.7,                                    ! Solar Absorptance
  0.7;                                    ! Visible Absorptance

OS:Material,
  {2889b6fe-7e1b-4fa0-a5c4-f7442d4e8ff3}, ! Handle
  1/2IN Gypsum,                           ! Name
  Smooth,                                 ! Roughness
  0.01271,                                ! Thickness {m}
  0.16,                                   ! Conductivity {W/m-K}
  784.9,                                  ! Density {kg/m3}
  830,                                    ! Specific Heat {J/kg-K}
  0.9,                                    ! Thermal Absorptance
  0.92,                                   ! Solar Absorptance
  0.92;                                   ! Visible Absorptance

OS:ComponentCost:LineItem,
  {9f20435b-8dfa-4233-a2c1-e8e6818403f2}, ! Handle
  Title 24-2008 Nonres 15 Ext Wall Wood-Framed and Other, ! Name
  ,                                       ! Type
  Construction,                           ! Line Item Type
  Title 24-2008 Nonres 15 Ext Wall Wood-Framed and Other, ! Item Name
  ,                                       ! Object End Use Key
  ,                                       ! Quantity {dimensionless}
  140.526,                                ! Material Cost {$}
  CostPerArea;                            ! Material Cost Units

