
OS:Version,
  {340e867f-b7a6-4f05-85f5-b0748553c624}, ! Handle
  0.9.3;                                  ! Version Identifier

OS:Material,
  {d5f61608-99cb-4344-b70b-31bac691036d}, ! Handle
  1/2IN Gypsum Top,                       ! Name
  Smooth,                                 ! Roughness
  0.01271,                                ! Thickness {m}
  0.16,                                   ! Conductivity {W/m-K}
  784.9,                                  ! Density {kg/m3}
  830,                                    ! Specific Heat {J/kg-K}
  0.9,                                    ! Thermal Absorptance
  0.92,                                   ! Solar Absorptance
  0.92;                                   ! Visible Absorptance

OS:Material,
  {eb07e0df-0ae2-4b69-a5c7-3cccfa42bebe}, ! Handle
  AtticFloor Insulation [31],             ! Name
  MediumRough,                            ! Roughness
  0.0911022,                              ! Thickness {m}
  0.049,                                  ! Conductivity {W/m-K}
  265,                                    ! Density {kg/m3}
  836.8,                                  ! Specific Heat {J/kg-K}
  0.9,                                    ! Thermal Absorptance
  0.7,                                    ! Solar Absorptance
  0.7;                                    ! Visible Absorptance

OS:Material,
  {19f2069a-7aec-40d4-80ca-601e35666a57}, ! Handle
  1/2IN Gypsum Bottom,                    ! Name
  Smooth,                                 ! Roughness
  0.01271,                                ! Thickness {m}
  0.16,                                   ! Conductivity {W/m-K}
  784.9,                                  ! Density {kg/m3}
  830,                                    ! Specific Heat {J/kg-K}
  0.9,                                    ! Thermal Absorptance
  0.92,                                   ! Solar Absorptance
  0.92;                                   ! Visible Absorptance

OS:ComponentCost:LineItem,
  {c4a59ba3-d51a-408d-a6d8-f9c047df51f3}, ! Handle
  90.1 Constructions Attic Floor R-13.0,  ! Name
  ,                                       ! Type
  Construction,                           ! Line Item Type
  90.1 Constructions Attic Floor R-13.0,  ! Item Name
  ,                                       ! Object End Use Key
  ,                                       ! Quantity {dimensionless}
  31.301,                                 ! Material Cost {$}
  CostPerArea;                            ! Material Cost Units

OS:Construction,
  {80eb067d-6823-47f2-af84-3de37bc0cf18}, ! Handle
  90.1 Constructions Attic Floor R-13.0,  ! Name
  ,                                       ! Surface Rendering Name
  {d5f61608-99cb-4344-b70b-31bac691036d}, ! Layer 1
  {eb07e0df-0ae2-4b69-a5c7-3cccfa42bebe}, ! Layer 2
  {19f2069a-7aec-40d4-80ca-601e35666a57}; ! Layer 3

