
OS:Version,
  {3e431751-59e0-482f-b9c6-c485c1f5c37e}, ! Handle
  0.9.3;                                  ! Version Identifier

OS:Construction,
  {e09ba3ed-231c-43b3-b283-d0c2e24a7a08}, ! Handle
  90.1-1999 Res B8 Ext Wall Mass,         ! Name
  ,                                       ! Surface Rendering Name
  {8fb60425-f5dc-4f7e-94ac-16b10339c689}, ! Layer 1
  {d9edf1ec-c19c-4d57-8f18-2d0643fc3cb9}, ! Layer 2
  {2ffdd68c-7a9c-45cc-a2a1-477875eb9f07}, ! Layer 3
  {1400171d-5dd5-410f-8d55-539db12e0b14}; ! Layer 4

OS:Material,
  {8fb60425-f5dc-4f7e-94ac-16b10339c689}, ! Handle
  1IN Stucco,                             ! Name
  Smooth,                                 ! Roughness
  0.0253,                                 ! Thickness {m}
  0.6918,                                 ! Conductivity {W/m-K}
  1858,                                   ! Density {kg/m3}
  837,                                    ! Specific Heat {J/kg-K}
  0.9,                                    ! Thermal Absorptance
  0.92,                                   ! Solar Absorptance
  0.92;                                   ! Visible Absorptance

OS:Material,
  {d9edf1ec-c19c-4d57-8f18-2d0643fc3cb9}, ! Handle
  8IN Concrete HW,                        ! Name
  MediumRough,                            ! Roughness
  0.2033,                                 ! Thickness {m}
  1.7296,                                 ! Conductivity {W/m-K}
  2243,                                   ! Density {kg/m3}
  837,                                    ! Specific Heat {J/kg-K}
  0.9,                                    ! Thermal Absorptance
  0.65,                                   ! Solar Absorptance
  0.65;                                   ! Visible Absorptance

OS:Material,
  {2ffdd68c-7a9c-45cc-a2a1-477875eb9f07}, ! Handle
  Wall Insulation [4],                    ! Name
  MediumRough,                            ! Roughness
  0.0338606,                              ! Thickness {m}
  0.0432,                                 ! Conductivity {W/m-K}
  91,                                     ! Density {kg/m3}
  837,                                    ! Specific Heat {J/kg-K}
  0.9,                                    ! Thermal Absorptance
  0.5,                                    ! Solar Absorptance
  0.5;                                    ! Visible Absorptance

OS:Material,
  {1400171d-5dd5-410f-8d55-539db12e0b14}, ! Handle
  1/2IN Gypsum,                           ! Name
  Smooth,                                 ! Roughness
  0.01271,                                ! Thickness {m}
  0.16,                                   ! Conductivity {W/m-K}
  784.9,                                  ! Density {kg/m3}
  830,                                    ! Specific Heat {J/kg-K}
  0.9,                                    ! Thermal Absorptance
  0.92,                                   ! Solar Absorptance
  0.92;                                   ! Visible Absorptance

OS:ComponentCost:LineItem,
  {c26dee5f-bde0-4384-b91c-c30aba744720}, ! Handle
  90.1-1999 Res B8 Ext Wall Mass,         ! Name
  ,                                       ! Type
  Construction,                           ! Line Item Type
  90.1-1999 Res B8 Ext Wall Mass,         ! Item Name
  ,                                       ! Object End Use Key
  ,                                       ! Quantity {dimensionless}
  58.897,                                 ! Material Cost {$}
  CostPerArea;                            ! Material Cost Units

OS:ComponentData,
  {a8edffc6-46fe-4b3e-b18e-b20494052c10}, ! Handle
  Component Data 1,                       ! Name
  {13dd44cb-2b3c-470e-98fd-273d37388b8c}, ! UUID
  {dc5666c7-8865-4947-a2d5-5334db0bffbe}, ! Version UUID
  1363981195,                             ! Creation Timestamp
  1363981195,                             ! Version Timestamp
  {e09ba3ed-231c-43b3-b283-d0c2e24a7a08}, ! Name of Object 1
  {8fb60425-f5dc-4f7e-94ac-16b10339c689}, ! Name of Object 2
  {d9edf1ec-c19c-4d57-8f18-2d0643fc3cb9}, ! Name of Object 3
  {2ffdd68c-7a9c-45cc-a2a1-477875eb9f07}, ! Name of Object 4
  {1400171d-5dd5-410f-8d55-539db12e0b14}, ! Name of Object 5
  {c26dee5f-bde0-4384-b91c-c30aba744720}; ! Name of Object 6

