
OS:Version,
  {fe3da339-672d-43b6-be29-029e2fe1df01}, ! Handle
  0.9.3;                                  ! Version Identifier

OS:Construction,
  {96e43806-d8bd-4b3e-b359-a4eaaf1df655}, ! Handle
  90.1-1999 Nonres B6 Window Fixed,       ! Name
  ,                                       ! Surface Rendering Name
  {b73db728-c804-4194-9a23-491096a3181d}; ! Layer 1

OS:WindowMaterial:Glazing,
  {b73db728-c804-4194-9a23-491096a3181d}, ! Handle
  Theoretical Glass [16],                 ! Name
  SpectralAverage,                        ! Optical Data Type
  ,                                       ! Window Glass Spectral Data Set Name
  0.003,                                  ! Thickness {m}
  0.40639,                                ! Solar Transmittance at Normal Incidence
  0.54361,                                ! Front Side Solar Reflectance at Normal Incidence
  0.54361,                                ! Back Side Solar Reflectance at Normal Incidence
  0.446703,                               ! Visible Transmittance at Normal Incidence
  0.503297,                               ! Front Side Visible Reflectance at Normal Incidence
  0.503297,                               ! Back Side Visible Reflectance at Normal Incidence
  0,                                      ! Infrared Transmittance at Normal Incidence
  0.999,                                  ! Front Side Infrared Hemispherical Emissivity
  0.999,                                  ! Back Side Infrared Hemispherical Emissivity
  3.36874;                                ! Conductivity {W/m-K}

OS:ComponentCost:LineItem,
  {4de9a19c-8caf-4641-a18e-95bc123f9090}, ! Handle
  90.1-1999 Nonres B6 Window Fixed,       ! Name
  ,                                       ! Type
  Construction,                           ! Line Item Type
  90.1-1999 Nonres B6 Window Fixed,       ! Item Name
  ,                                       ! Object End Use Key
  ,                                       ! Quantity {dimensionless}
  462.094,                                ! Material Cost {$}
  CostPerArea;                            ! Material Cost Units

