
OS:Version,
  {42652d1a-08c3-494c-a625-027f058877f9}, ! Handle
  0.9.3;                                  ! Version Identifier

OS:Material,
  {26105af8-e00e-431c-b3c5-17d3a05a47b7}, ! Handle
  1/2IN Gypsum Top,                       ! Name
  Smooth,                                 ! Roughness
  0.01271,                                ! Thickness {m}
  0.16,                                   ! Conductivity {W/m-K}
  784.9,                                  ! Density {kg/m3}
  830,                                    ! Specific Heat {J/kg-K}
  0.9,                                    ! Thermal Absorptance
  0.92,                                   ! Solar Absorptance
  0.92;                                   ! Visible Absorptance

OS:Construction,
  {def50e4f-9296-4f5f-a6c6-e18f4d1834fa}, ! Handle
  AEDG SHC Nonres 7A Attic Floor,         ! Name
  ,                                       ! Surface Rendering Name
  {26105af8-e00e-431c-b3c5-17d3a05a47b7}, ! Layer 1
  {09573cd3-9a60-4a3b-b49c-9d530f4e1531}, ! Layer 2
  {637773b0-9876-48ed-a1a4-78c2eb617943}; ! Layer 3

OS:Material,
  {09573cd3-9a60-4a3b-b49c-9d530f4e1531}, ! Handle
  AtticFloor Insulation [10],             ! Name
  MediumRough,                            ! Roughness
  0.35812,                                ! Thickness {m}
  0.049,                                  ! Conductivity {W/m-K}
  265,                                    ! Density {kg/m3}
  836.8,                                  ! Specific Heat {J/kg-K}
  0.9,                                    ! Thermal Absorptance
  0.7,                                    ! Solar Absorptance
  0.7;                                    ! Visible Absorptance

OS:Material,
  {637773b0-9876-48ed-a1a4-78c2eb617943}, ! Handle
  1/2IN Gypsum Bottom,                    ! Name
  Smooth,                                 ! Roughness
  0.01271,                                ! Thickness {m}
  0.16,                                   ! Conductivity {W/m-K}
  784.9,                                  ! Density {kg/m3}
  830,                                    ! Specific Heat {J/kg-K}
  0.9,                                    ! Thermal Absorptance
  0.92,                                   ! Solar Absorptance
  0.92;                                   ! Visible Absorptance

OS:ComponentCost:LineItem,
  {8c99c3d0-5717-4daf-829b-c71c3c80fb23}, ! Handle
  AEDG SHC Nonres 7A Attic Floor,         ! Name
  ,                                       ! Type
  Construction,                           ! Line Item Type
  AEDG SHC Nonres 7A Attic Floor,         ! Item Name
  ,                                       ! Object End Use Key
  ,                                       ! Quantity {dimensionless}
  0,                                      ! Material Cost {$}
  CostPerArea;                            ! Material Cost Units

