
OS:Version,
  {45c87427-f530-4c1a-ace8-144109517ec3}, ! Handle
  0.9.3;                                  ! Version Identifier

OS:Construction,
  {46cef694-52d5-462d-a253-20f8dea365fa}, ! Handle
  AEDG SHC Nonres 7A Attic Floor,         ! Name
  ,                                       ! Surface Rendering Name
  {4a4c4399-a034-4b9e-b467-ba41337d826d}, ! Layer 1
  {20ff1b8f-8c61-4e48-9235-5fc5498053a6}, ! Layer 2
  {4f22edc6-1946-4d02-8977-611ed2dd6f25}; ! Layer 3

OS:Material,
  {4a4c4399-a034-4b9e-b467-ba41337d826d}, ! Handle
  1/2IN Gypsum Top,                       ! Name
  Smooth,                                 ! Roughness
  0.01271,                                ! Thickness {m}
  0.16,                                   ! Conductivity {W/m-K}
  784.9,                                  ! Density {kg/m3}
  830,                                    ! Specific Heat {J/kg-K}
  0.9,                                    ! Thermal Absorptance
  0.92,                                   ! Solar Absorptance
  0.92;                                   ! Visible Absorptance

OS:Material,
  {20ff1b8f-8c61-4e48-9235-5fc5498053a6}, ! Handle
  AtticFloor Insulation [10],             ! Name
  MediumRough,                            ! Roughness
  0.35812,                                ! Thickness {m}
  0.049,                                  ! Conductivity {W/m-K}
  265,                                    ! Density {kg/m3}
  836.8,                                  ! Specific Heat {J/kg-K}
  0.9,                                    ! Thermal Absorptance
  0.7,                                    ! Solar Absorptance
  0.7;                                    ! Visible Absorptance

OS:Material,
  {4f22edc6-1946-4d02-8977-611ed2dd6f25}, ! Handle
  1/2IN Gypsum Bottom,                    ! Name
  Smooth,                                 ! Roughness
  0.01271,                                ! Thickness {m}
  0.16,                                   ! Conductivity {W/m-K}
  784.9,                                  ! Density {kg/m3}
  830,                                    ! Specific Heat {J/kg-K}
  0.9,                                    ! Thermal Absorptance
  0.92,                                   ! Solar Absorptance
  0.92;                                   ! Visible Absorptance

OS:ComponentCost:LineItem,
  {c1893977-921f-4629-b53e-3348c570447a}, ! Handle
  AEDG SHC Nonres 7A Attic Floor,         ! Name
  ,                                       ! Type
  Construction,                           ! Line Item Type
  AEDG SHC Nonres 7A Attic Floor,         ! Item Name
  ,                                       ! Object End Use Key
  ,                                       ! Quantity {dimensionless}
  0,                                      ! Material Cost {$}
  CostPerArea;                            ! Material Cost Units

OS:ComponentData,
  {e19b682d-5a77-4508-af94-126a51648ee6}, ! Handle
  Component Data 1,                       ! Name
  {bbf9efe6-97bd-465a-911d-27a8ec047880}, ! UUID
  {0cc405be-ef8e-4282-ab20-b5a74e9e42d8}, ! Version UUID
  1363981929,                             ! Creation Timestamp
  1363981929,                             ! Version Timestamp
  {46cef694-52d5-462d-a253-20f8dea365fa}, ! Name of Object 1
  {4a4c4399-a034-4b9e-b467-ba41337d826d}, ! Name of Object 2
  {20ff1b8f-8c61-4e48-9235-5fc5498053a6}, ! Name of Object 3
  {4f22edc6-1946-4d02-8977-611ed2dd6f25}, ! Name of Object 4
  {c1893977-921f-4629-b53e-3348c570447a}; ! Name of Object 5

