
OS:Version,
  {627a9441-01d1-4c7a-ad6c-e8c1d00b6482}, ! Handle
  0.9.3;                                  ! Version Identifier

OS:Material,
  {8b590aa3-ab5a-4254-bd9e-14ed3fe8f69b}, ! Handle
  Roof Insulation [8],                    ! Name
  MediumRough,                            ! Roughness
  0.166908,                               ! Thickness {m}
  0.049,                                  ! Conductivity {W/m-K}
  265,                                    ! Density {kg/m3}
  836.8,                                  ! Specific Heat {J/kg-K}
  0.9,                                    ! Thermal Absorptance
  0.7,                                    ! Solar Absorptance
  0.7;                                    ! Visible Absorptance

OS:ComponentCost:LineItem,
  {71c46ed7-5032-48c4-9b8a-b0843873b1ac}, ! Handle
  90.1-1999 Nonres B25 Roof Metal Building, ! Name
  ,                                       ! Type
  Construction,                           ! Line Item Type
  90.1-1999 Nonres B25 Roof Metal Building, ! Item Name
  ,                                       ! Object End Use Key
  ,                                       ! Quantity {dimensionless}
  42.184,                                 ! Material Cost {$}
  CostPerArea;                            ! Material Cost Units

OS:Material,
  {9d9f0242-e9f2-43c7-9511-5639b559ed37}, ! Handle
  Metal Roofing,                          ! Name
  MediumSmooth,                           ! Roughness
  0.001524,                               ! Thickness {m}
  45.006,                                 ! Conductivity {W/m-K}
  7680,                                   ! Density {kg/m3}
  418.4,                                  ! Specific Heat {J/kg-K}
  0.9,                                    ! Thermal Absorptance
  0.7,                                    ! Solar Absorptance
  0.3;                                    ! Visible Absorptance

OS:Construction,
  {7091495a-35ab-4d26-aec7-f051b832f4bf}, ! Handle
  90.1-1999 Nonres B25 Roof Metal Building, ! Name
  ,                                       ! Surface Rendering Name
  {9d9f0242-e9f2-43c7-9511-5639b559ed37}, ! Layer 1
  {8b590aa3-ab5a-4254-bd9e-14ed3fe8f69b}; ! Layer 2

