
OS:Version,
  {64066539-55a9-422b-a619-206bff3d9995}, ! Handle
  0.9.3;                                  ! Version Identifier

OS:Construction,
  {34b967d5-7fd2-416a-a4e4-f2148aafb781}, ! Handle
  90.1-2001 Res B23 Skylight without Curb, ! Name
  ,                                       ! Surface Rendering Name
  {98698d99-27ab-400d-8d64-da90f2feb06f}; ! Layer 1

OS:WindowMaterial:Glazing,
  {98698d99-27ab-400d-8d64-da90f2feb06f}, ! Handle
  Theoretical Glass [111],                ! Name
  SpectralAverage,                        ! Optical Data Type
  ,                                       ! Window Glass Spectral Data Set Name
  0.003,                                  ! Thickness {m}
  0.471791,                               ! Solar Transmittance at Normal Incidence
  0.478209,                               ! Front Side Solar Reflectance at Normal Incidence
  0.478209,                               ! Back Side Solar Reflectance at Normal Incidence
  0.529698,                               ! Visible Transmittance at Normal Incidence
  0.420302,                               ! Front Side Visible Reflectance at Normal Incidence
  0.420302,                               ! Back Side Visible Reflectance at Normal Incidence
  0,                                      ! Infrared Transmittance at Normal Incidence
  0.9,                                    ! Front Side Infrared Hemispherical Emissivity
  0.9,                                    ! Back Side Infrared Hemispherical Emissivity
  0.0214562;                              ! Conductivity {W/m-K}

OS:ComponentCost:LineItem,
  {641cf8fd-dc5f-45b4-ac85-470124937950}, ! Handle
  90.1-2001 Res B23 Skylight without Curb, ! Name
  ,                                       ! Type
  Construction,                           ! Line Item Type
  90.1-2001 Res B23 Skylight without Curb, ! Item Name
  ,                                       ! Object End Use Key
  ,                                       ! Quantity {dimensionless}
  524.932,                                ! Material Cost {$}
  CostPerArea;                            ! Material Cost Units

