
OS:Version,
  {156ed451-bee5-42f9-9a21-995f04d0c0d1}, ! Handle
  0.9.3;                                  ! Version Identifier

OS:Construction,
  {ec7254aa-01b9-4da8-8d8f-66793788f2b1}, ! Handle
  90.1-2001 Res B23 Skylight without Curb, ! Name
  ,                                       ! Surface Rendering Name
  {554970d8-df0f-416d-b577-ae4eb9c028cd}; ! Layer 1

OS:WindowMaterial:Glazing,
  {554970d8-df0f-416d-b577-ae4eb9c028cd}, ! Handle
  Theoretical Glass [111],                ! Name
  SpectralAverage,                        ! Optical Data Type
  ,                                       ! Window Glass Spectral Data Set Name
  0.003,                                  ! Thickness {m}
  0.471791,                               ! Solar Transmittance at Normal Incidence
  0.478209,                               ! Front Side Solar Reflectance at Normal Incidence
  0.478209,                               ! Back Side Solar Reflectance at Normal Incidence
  0.529698,                               ! Visible Transmittance at Normal Incidence
  0.420302,                               ! Front Side Visible Reflectance at Normal Incidence
  0.420302,                               ! Back Side Visible Reflectance at Normal Incidence
  0,                                      ! Infrared Transmittance at Normal Incidence
  0.9,                                    ! Front Side Infrared Hemispherical Emissivity
  0.9,                                    ! Back Side Infrared Hemispherical Emissivity
  0.0214562;                              ! Conductivity {W/m-K}

OS:ComponentCost:LineItem,
  {b6498c6a-3771-4fb4-aacd-4ff6421e80df}, ! Handle
  90.1-2001 Res B23 Skylight without Curb, ! Name
  ,                                       ! Type
  Construction,                           ! Line Item Type
  90.1-2001 Res B23 Skylight without Curb, ! Item Name
  ,                                       ! Object End Use Key
  ,                                       ! Quantity {dimensionless}
  524.932,                                ! Material Cost {$}
  CostPerArea;                            ! Material Cost Units

OS:ComponentData,
  {2053d36c-490b-4bcc-b267-a3334bc1ab32}, ! Handle
  Component Data 1,                       ! Name
  {94e2e0fc-0fe5-480c-99f7-7ff41b7c0d25}, ! UUID
  {2163b143-a4e1-4f15-88e3-7d510b91f4bf}, ! Version UUID
  1363981602,                             ! Creation Timestamp
  1363981602,                             ! Version Timestamp
  {ec7254aa-01b9-4da8-8d8f-66793788f2b1}, ! Name of Object 1
  {554970d8-df0f-416d-b577-ae4eb9c028cd}, ! Name of Object 2
  {b6498c6a-3771-4fb4-aacd-4ff6421e80df}; ! Name of Object 3

