
OS:Version,
  {bc46b8ec-cef4-11e7-abc4-cec278b6b50a}, !- Handle
  1.14.0;                                 !- Version Identifier

OS:Material,
  {bc46bc16-cef4-11e7-abc4-cec278b6b50a}, ! Handle
  Gips-Kalk Innenputz 1.5cm,              ! Name
  Smooth,                                 ! Roughness 
  0.015,                                  ! Thickness {m}
  0.7 ,                                   ! Conductivity {W/m-K}
  1800,                                   ! Density {kg/m3}
  1000,                                   ! Specific Heat {J/kg-K}
  0.7,                                    ! Thermal Absorptance
  0.7,                                    ! Solar Absorptance
  0.7;                                    ! Visible Absorptance

OS:Material,
  {bc46bf04-cef4-11e7-abc4-cec278b6b50a}, ! Handle
  Naturstein 45cm,                        ! Name
  Smooth,                                 ! Roughness
  0.45,                                   ! Thickness {m}
  0.55,                                   ! Conductivity {W/m-K}
  1400,                                   ! Density {kg/m3}
  1010,                                   ! Specific Heat {J/kg-K}
  0.3,                                    ! Thermal Absorptance
  0.3,                                    ! Solar Absorptance
  0.3;                                    ! Visible Absorptance

OS:Construction,
  {bc46bb44-cef4-11e7-abc4-cec278b6b50a}, ! Handle
  U-W DE MFH ExtWall -1918 7,             ! Name
  ,                                       ! Surface Rendering Name
  
Name
  {bc46bf04-cef4-11e7-abc4-cec278b6b50a}, ! Layer 2
  {bc46bc16-cef4-11e7-abc4-cec278b6b50a}; ! Layer 3


