
OS:Version,
  {081fb035-57e9-4cd8-ae1c-975fc02caa32}, ! Handle
  0.9.3;                                  ! Version Identifier

OS:Material,
  {5264205e-efbb-4136-9b47-34f9bac5c4bc}, ! Handle
  1/2IN Gypsum Bottom,                    ! Name
  Smooth,                                 ! Roughness
  0.01271,                                ! Thickness {m}
  0.16,                                   ! Conductivity {W/m-K}
  784.9,                                  ! Density {kg/m3}
  830,                                    ! Specific Heat {J/kg-K}
  0.9,                                    ! Thermal Absorptance
  0.92,                                   ! Solar Absorptance
  0.92;                                   ! Visible Absorptance

OS:ComponentCost:LineItem,
  {85df121a-e14f-44ce-93f5-79ca597c8801}, ! Handle
  90.1 Constructions Attic Floor NR,      ! Name
  ,                                       ! Type
  Construction,                           ! Line Item Type
  90.1 Constructions Attic Floor NR,      ! Item Name
  ,                                       ! Object End Use Key
  ,                                       ! Quantity {dimensionless}
  29.327,                                 ! Material Cost {$}
  CostPerArea;                            ! Material Cost Units

OS:Material,
  {b42abcce-07de-4ea0-810e-7b13493bc27a}, ! Handle
  1/2IN Gypsum Top,                       ! Name
  Smooth,                                 ! Roughness
  0.01271,                                ! Thickness {m}
  0.16,                                   ! Conductivity {W/m-K}
  784.9,                                  ! Density {kg/m3}
  830,                                    ! Specific Heat {J/kg-K}
  0.9,                                    ! Thermal Absorptance
  0.92,                                   ! Solar Absorptance
  0.92;                                   ! Visible Absorptance

OS:Construction,
  {cc4a7808-9dd1-4267-b265-7268b1076dc4}, ! Handle
  90.1 Constructions Attic Floor NR,      ! Name
  ,                                       ! Surface Rendering Name
  {b42abcce-07de-4ea0-810e-7b13493bc27a}, ! Layer 1
  {5264205e-efbb-4136-9b47-34f9bac5c4bc}; ! Layer 2

