
OS:Version,
  {0ff99750-29de-4c23-840f-19eaed73246a}, ! Handle
  0.9.3;                                  ! Version Identifier

OS:Material,
  {3dca38a5-6111-45d0-b157-5cf70e772f9a}, ! Handle
  Wall Insulation [24],                   ! Name
  MediumRough,                            ! Roughness
  0.109394,                               ! Thickness {m}
  0.045,                                  ! Conductivity {W/m-K}
  265,                                    ! Density {kg/m3}
  836.8,                                  ! Specific Heat {J/kg-K}
  0.9,                                    ! Thermal Absorptance
  0.7,                                    ! Solar Absorptance
  0.7;                                    ! Visible Absorptance

OS:Material,
  {b3ef72b6-6d15-425f-9b92-e7d82c9578ea}, ! Handle
  1/2IN Gypsum,                           ! Name
  Smooth,                                 ! Roughness
  0.01271,                                ! Thickness {m}
  0.16,                                   ! Conductivity {W/m-K}
  784.9,                                  ! Density {kg/m3}
  830,                                    ! Specific Heat {J/kg-K}
  0.9,                                    ! Thermal Absorptance
  0.92,                                   ! Solar Absorptance
  0.92;                                   ! Visible Absorptance

OS:Material,
  {02dcfd8c-c76f-4dd1-bdf4-f85ff2155154}, ! Handle
  Wood Siding,                            ! Name
  MediumSmooth,                           ! Roughness
  0.01,                                   ! Thickness {m}
  0.11,                                   ! Conductivity {W/m-K}
  544.62,                                 ! Density {kg/m3}
  1210,                                   ! Specific Heat {J/kg-K}
  0.9,                                    ! Thermal Absorptance
  0.78,                                   ! Solar Absorptance
  0.78;                                   ! Visible Absorptance

OS:Construction,
  {27e033a4-7a05-4561-bd80-f332c73401f8}, ! Handle
  90.1-2007 Nonres 5B Ext Wall Wood-Framed and Other, ! Name
  ,                                       ! Surface Rendering Name
  {02dcfd8c-c76f-4dd1-bdf4-f85ff2155154}, ! Layer 1
  {3dca38a5-6111-45d0-b157-5cf70e772f9a}, ! Layer 2
  {b3ef72b6-6d15-425f-9b92-e7d82c9578ea}; ! Layer 3

OS:ComponentCost:LineItem,
  {ac74988b-2269-4b98-91b7-5980c8d17f74}, ! Handle
  90.1-2007 Nonres 5B Ext Wall Wood-Framed and Other, ! Name
  ,                                       ! Type
  Construction,                           ! Line Item Type
  90.1-2007 Nonres 5B Ext Wall Wood-Framed and Other, ! Item Name
  ,                                       ! Object End Use Key
  ,                                       ! Quantity {dimensionless}
  77.622,                                 ! Material Cost {$}
  CostPerArea;                            ! Material Cost Units

