
OS:Version,
  {8b832a95-c64d-48a6-8a3b-de638a4a370b}, ! Handle
  0.9.3;                                  ! Version Identifier

OS:Construction,
  {12cc1c93-3f0f-4168-842c-5d482b3d8010}, ! Handle
  90.1-2004 Nonres 4B Ext Wall Metal Building, ! Name
  ,                                       ! Surface Rendering Name
  {db61270a-9628-4e48-93d9-936127e85562}, ! Layer 1
  {e582deb5-67b2-4361-bfcf-d6eddf289d8c}, ! Layer 2
  {39e248c9-1bdf-4ae1-b183-6cd7d9d03d31}; ! Layer 3

OS:Material,
  {db61270a-9628-4e48-93d9-936127e85562}, ! Handle
  Metal Siding,                           ! Name
  Smooth,                                 ! Roughness
  0.0015,                                 ! Thickness {m}
  44.96,                                  ! Conductivity {W/m-K}
  7688.86,                                ! Density {kg/m3}
  410,                                    ! Specific Heat {J/kg-K}
  0.9,                                    ! Thermal Absorptance
  0.2,                                    ! Solar Absorptance
  0.2;                                    ! Visible Absorptance

OS:Material,
  {e582deb5-67b2-4361-bfcf-d6eddf289d8c}, ! Handle
  Wall Insulation,                        ! Name
  MediumRough,                            ! Roughness
  0.0598725,                              ! Thickness {m}
  0.045,                                  ! Conductivity {W/m-K}
  265,                                    ! Density {kg/m3}
  836.8,                                  ! Specific Heat {J/kg-K}
  0.9,                                    ! Thermal Absorptance
  0.7,                                    ! Solar Absorptance
  0.7;                                    ! Visible Absorptance

OS:Material,
  {39e248c9-1bdf-4ae1-b183-6cd7d9d03d31}, ! Handle
  1/2IN Gypsum,                           ! Name
  Smooth,                                 ! Roughness
  0.01271,                                ! Thickness {m}
  0.16,                                   ! Conductivity {W/m-K}
  784.9,                                  ! Density {kg/m3}
  830,                                    ! Specific Heat {J/kg-K}
  0.9,                                    ! Thermal Absorptance
  0.92,                                   ! Solar Absorptance
  0.92;                                   ! Visible Absorptance

OS:ComponentCost:LineItem,
  {06f01072-2060-49cc-91e6-976684708ca6}, ! Handle
  90.1-2004 Nonres 4B Ext Wall Metal Building, ! Name
  ,                                       ! Type
  Construction,                           ! Line Item Type
  90.1-2004 Nonres 4B Ext Wall Metal Building, ! Item Name
  ,                                       ! Object End Use Key
  ,                                       ! Quantity {dimensionless}
  98.78,                                  ! Material Cost {$}
  CostPerArea;                            ! Material Cost Units

