
OS:Version,
  {b6e5b522-9006-48ae-bbdd-0fc609cfa8e3}, ! Handle
  0.9.3;                                  ! Version Identifier

OS:Material,
  {e8d9a075-bbcb-4efb-ad0b-e61b5dcc1f13}, ! Handle
  GP01 1/2 GYPSUM,                        ! Name
  Smooth,                                 ! Roughness
  0.01271,                                ! Thickness {m}
  0.16,                                   ! Conductivity {W/m-K}
  800,                                    ! Density {kg/m3}
  1090,                                   ! Specific Heat {J/kg-K}
  0.9,                                    ! Thermal Absorptance
  0.7,                                    ! Solar Absorptance
  0.5;                                    ! Visible Absorptance

OS:Construction,
  {0cba9e89-1efd-4207-8a2e-467d63be18c8}, ! Handle
  Title 24-2008 Nonres 16 Int Wall,       ! Name
  ,                                       ! Surface Rendering Name
  {e8d9a075-bbcb-4efb-ad0b-e61b5dcc1f13}, ! Layer 1
  {e8d9a075-bbcb-4efb-ad0b-e61b5dcc1f13}; ! Layer 2

OS:ComponentCost:LineItem,
  {66bafc00-a9e4-45bf-bf81-aa866969ff9e}, ! Handle
  Title 24-2008 Nonres 16 Int Wall,       ! Name
  ,                                       ! Type
  Construction,                           ! Line Item Type
  Title 24-2008 Nonres 16 Int Wall,       ! Item Name
  ,                                       ! Object End Use Key
  ,                                       ! Quantity {dimensionless}
  0,                                      ! Material Cost {$}
  CostPerArea;                            ! Material Cost Units

OS:Material,
  {dc7b50c4-fd2e-4c51-b55b-85550a291502}, ! Handle
  GP01 1/2 GYPSUM 1,                      ! Name
  Smooth,                                 ! Roughness
  0.01271,                                ! Thickness {m}
  0.16,                                   ! Conductivity {W/m-K}
  800,                                    ! Density {kg/m3}
  1090,                                   ! Specific Heat {J/kg-K}
  0.9,                                    ! Thermal Absorptance
  0.7,                                    ! Solar Absorptance
  0.5;                                    ! Visible Absorptance

