
! 
OS:Version,
  {b931843d-5409-43ea-9d81-bda9506faad6}, !- Handle
  1.13.0;                                 !- Version Identifier


! 
OS:Material,
  {7a1f38f6-1087-4d15-9a3f-47d3df97d27c}, !- Handle
  Aislamiento: CUBIERTA EXTERIOR
ISOVER: PANEL CUBIERTA (0.080 m)
R: 2.1 m2K/W,                             !- Name
  MediumRough,                                 !- Roughness
  0.08,                                    !- Thickness {m}
  0.039,                                    !- Conductivity {W/m-K}
  120.0,                                    !- Density {kg/m3}
  800.0,                                    !- Specific Heat {J/kg-K}
  0.9,                                    !- Thermal Absorptance
  0.6,                                    !- Solar Absorptance
  0.6;                                    !- Visible Absorptance

