
OS:Version,
  {c15c4598-e110-4ecd-86ec-a016b73f56f8}, ! Handle
  0.9.3;                                  ! Version Identifier

OS:Construction,
  {c87f340f-c916-4be8-a938-2b2d89cd63be}, ! Handle
  90.1-1999 Res B19 Window Fixed,         ! Name
  ,                                       ! Surface Rendering Name
  {b10bc93e-e062-43af-aea8-68ef6361a024}; ! Layer 1

OS:WindowMaterial:Glazing,
  {b10bc93e-e062-43af-aea8-68ef6361a024}, ! Handle
  Theoretical Glass [94],                 ! Name
  SpectralAverage,                        ! Optical Data Type
  ,                                       ! Window Glass Spectral Data Set Name
  0.003,                                  ! Thickness {m}
  0.469989,                               ! Solar Transmittance at Normal Incidence
  0.480011,                               ! Front Side Solar Reflectance at Normal Incidence
  0.480011,                               ! Back Side Solar Reflectance at Normal Incidence
  0.489393,                               ! Visible Transmittance at Normal Incidence
  0.460607,                               ! Front Side Visible Reflectance at Normal Incidence
  0.460607,                               ! Back Side Visible Reflectance at Normal Incidence
  0,                                      ! Infrared Transmittance at Normal Incidence
  0.9,                                    ! Front Side Infrared Hemispherical Emissivity
  0.9,                                    ! Back Side Infrared Hemispherical Emissivity
  0.0137862;                              ! Conductivity {W/m-K}

OS:ComponentCost:LineItem,
  {05520ace-d306-4e50-b163-3b1ef5a82ec4}, ! Handle
  90.1-1999 Res B19 Window Fixed,         ! Name
  ,                                       ! Type
  Construction,                           ! Line Item Type
  90.1-1999 Res B19 Window Fixed,         ! Item Name
  ,                                       ! Object End Use Key
  ,                                       ! Quantity {dimensionless}
  537.952,                                ! Material Cost {$}
  CostPerArea;                            ! Material Cost Units

