
OS:Version,
  {db4eba42-e193-4c7e-a5b8-225db5b92dc9}, ! Handle
  0.9.3;                                  ! Version Identifier

OS:Material:NoMass,
  {0c50ab0c-2234-4c4c-89d9-4002c00772a3}, ! Handle
  CP02 CARPET PAD,                        ! Name
  VeryRough,                              ! Roughness
  0.21648,                                ! Thermal Resistance {m2-K/W}
  0.9,                                    ! Thermal Absorptance
  0.7,                                    ! Solar Absorptance
  0.8;                                    ! Visible Absorptance

OS:Material,
  {3ae2bbf6-15b7-4dec-a573-43b14197f1c9}, ! Handle
  MAT-CC05 8 HW CONCRETE,                 ! Name
  Rough,                                  ! Roughness
  0.20321,                                ! Thickness {m}
  1.311,                                  ! Conductivity {W/m-K}
  2240,                                   ! Density {kg/m3}
  836.8,                                  ! Specific Heat {J/kg-K}
  0.9,                                    ! Thermal Absorptance
  0.7,                                    ! Solar Absorptance
  0.7;                                    ! Visible Absorptance

OS:Construction,
  {544f3f3f-6299-4761-8126-74e180b07e49}, ! Handle
  AEDG K12 Nonres 2A Ext Slab Unheated - 8in Slab with Carpet, ! Name
  ,                                       ! Surface Rendering Name
  {3ae2bbf6-15b7-4dec-a573-43b14197f1c9}, ! Layer 1
  {0c50ab0c-2234-4c4c-89d9-4002c00772a3}; ! Layer 2

OS:ComponentCost:LineItem,
  {d64d699c-395a-4309-94f6-97110f36c90b}, ! Handle
  AEDG K12 Nonres 2A Ext Slab Unheated - 8in Slab with Carpet, ! Name
  ,                                       ! Type
  Construction,                           ! Line Item Type
  AEDG K12 Nonres 2A Ext Slab Unheated - 8in Slab with Carpet, ! Item Name
  ,                                       ! Object End Use Key
  ,                                       ! Quantity {dimensionless}
  0,                                      ! Material Cost {$}
  CostPerArea;                            ! Material Cost Units

