
OS:Version,
  {c4a67a0b-26cd-473b-b76d-4c1f5e4dfa3d}, ! Handle
  0.9.3;                                  ! Version Identifier

OS:Construction,
  {7efc0572-658c-40e1-9fa9-977fde0276b4}, ! Handle
  Title 24-2008 Nonres 15 Ext Slab Unheated - 4in Slab without Carpet, ! Name
  ,                                       ! Surface Rendering Name
  {92ed22b5-b199-4f1d-a4c5-9da06f0907ef}; ! Layer 1

OS:Material,
  {92ed22b5-b199-4f1d-a4c5-9da06f0907ef}, ! Handle
  MAT-CC05 4 HW CONCRETE,                 ! Name
  Rough,                                  ! Roughness
  0.1016,                                 ! Thickness {m}
  1.311,                                  ! Conductivity {W/m-K}
  2240,                                   ! Density {kg/m3}
  836.8,                                  ! Specific Heat {J/kg-K}
  0.9,                                    ! Thermal Absorptance
  0.7,                                    ! Solar Absorptance
  0.7;                                    ! Visible Absorptance

OS:ComponentCost:LineItem,
  {78390315-5f97-4a99-92bb-96aae9d9f0ac}, ! Handle
  Title 24-2008 Nonres 15 Ext Slab Unheated - 4in Slab without Carpet, ! Name
  ,                                       ! Type
  Construction,                           ! Line Item Type
  Title 24-2008 Nonres 15 Ext Slab Unheated - 4in Slab without Carpet, ! Item Name
  ,                                       ! Object End Use Key
  ,                                       ! Quantity {dimensionless}
  45.52,                                  ! Material Cost {$}
  CostPerArea;                            ! Material Cost Units

OS:ComponentData,
  {89ed4adc-f346-4b93-a7ce-2dc610e956af}, ! Handle
  Component Data 1,                       ! Name
  {8252007e-28ee-447f-9607-2b5e643606fe}, ! UUID
  {c380a593-0fde-4aa9-acc9-11f8ade1c471}, ! Version UUID
  1363982114,                             ! Creation Timestamp
  1363982114,                             ! Version Timestamp
  {7efc0572-658c-40e1-9fa9-977fde0276b4}, ! Name of Object 1
  {92ed22b5-b199-4f1d-a4c5-9da06f0907ef}, ! Name of Object 2
  {78390315-5f97-4a99-92bb-96aae9d9f0ac}; ! Name of Object 3

