
OS:Version,
  {7f2c3493-c842-47a6-b914-8119c0c3df7c}, ! Handle
  0.9.3;                                  ! Version Identifier

OS:Construction,
  {13bdd3b3-1094-45be-a257-27a7305bf0c5}, ! Handle
  Title 24-2008 Nonres 15 Ext Slab Unheated - 4in Slab without Carpet, ! Name
  ,                                       ! Surface Rendering Name
  {0281d77a-f4c7-42b6-a2e7-c6a7d3d71ae3}; ! Layer 1

OS:Material,
  {0281d77a-f4c7-42b6-a2e7-c6a7d3d71ae3}, ! Handle
  MAT-CC05 4 HW CONCRETE,                 ! Name
  Rough,                                  ! Roughness
  0.1016,                                 ! Thickness {m}
  1.311,                                  ! Conductivity {W/m-K}
  2240,                                   ! Density {kg/m3}
  836.8,                                  ! Specific Heat {J/kg-K}
  0.9,                                    ! Thermal Absorptance
  0.7,                                    ! Solar Absorptance
  0.7;                                    ! Visible Absorptance

OS:ComponentCost:LineItem,
  {d6e31e93-4d73-4c0d-9b96-1ab0e62ac293}, ! Handle
  Title 24-2008 Nonres 15 Ext Slab Unheated - 4in Slab without Carpet, ! Name
  ,                                       ! Type
  Construction,                           ! Line Item Type
  Title 24-2008 Nonres 15 Ext Slab Unheated - 4in Slab without Carpet, ! Item Name
  ,                                       ! Object End Use Key
  ,                                       ! Quantity {dimensionless}
  45.52,                                  ! Material Cost {$}
  CostPerArea;                            ! Material Cost Units

