
OS:Version,
  {039ca05f-0f54-4160-8dc7-369392f24974}, ! Handle
  0.9.3;                                  ! Version Identifier

OS:Construction,
  {76c93fa2-758e-4604-824c-5595549bce6a}, ! Handle
  90.1-1999 Res B1 Window Fixed,          ! Name
  ,                                       ! Surface Rendering Name
  {47832122-41a5-47a5-9038-3b899ad8d387}; ! Layer 1

OS:WindowMaterial:Glazing,
  {47832122-41a5-47a5-9038-3b899ad8d387}, ! Handle
  Theoretical Glass [62],                 ! Name
  SpectralAverage,                        ! Optical Data Type
  ,                                       ! Window Glass Spectral Data Set Name
  0.003,                                  ! Thickness {m}
  0.316118,                               ! Solar Transmittance at Normal Incidence
  0.633882,                               ! Front Side Solar Reflectance at Normal Incidence
  0.633882,                               ! Back Side Solar Reflectance at Normal Incidence
  0.330719,                               ! Visible Transmittance at Normal Incidence
  0.619281,                               ! Front Side Visible Reflectance at Normal Incidence
  0.619281,                               ! Back Side Visible Reflectance at Normal Incidence
  0,                                      ! Infrared Transmittance at Normal Incidence
  0.999,                                  ! Front Side Infrared Hemispherical Emissivity
  0.999,                                  ! Back Side Infrared Hemispherical Emissivity
  9.36219;                                ! Conductivity {W/m-K}

OS:ComponentCost:LineItem,
  {567fa540-fa70-4457-a7c1-de7463a216ca}, ! Handle
  90.1-1999 Res B1 Window Fixed,          ! Name
  ,                                       ! Type
  Construction,                           ! Line Item Type
  90.1-1999 Res B1 Window Fixed,          ! Item Name
  ,                                       ! Object End Use Key
  ,                                       ! Quantity {dimensionless}
  498.248,                                ! Material Cost {$}
  CostPerArea;                            ! Material Cost Units

