
OS:Version,
  {1c3457c3-583c-4f09-aaeb-50e8242b23b0}, ! Handle
  0.9.3;                                  ! Version Identifier

OS:WindowMaterial:Glazing,
  {f937e15b-df8a-4e4e-bb8b-625fe1b7ffaf}, ! Handle
  Theoretical Glass [486],                ! Name
  SpectralAverage,                        ! Optical Data Type
  ,                                       ! Window Glass Spectral Data Set Name
  0.003,                                  ! Thickness {m}
  0.267106,                               ! Solar Transmittance at Normal Incidence
  0.682894,                               ! Front Side Solar Reflectance at Normal Incidence
  0.682894,                               ! Back Side Solar Reflectance at Normal Incidence
  0.360158,                               ! Visible Transmittance at Normal Incidence
  0.589842,                               ! Front Side Visible Reflectance at Normal Incidence
  0.589842,                               ! Back Side Visible Reflectance at Normal Incidence
  0,                                      ! Infrared Transmittance at Normal Incidence
  0.9,                                    ! Front Side Infrared Hemispherical Emissivity
  0.9,                                    ! Back Side Infrared Hemispherical Emissivity
  0.00776617;                             ! Conductivity {W/m-K}

OS:ComponentCost:LineItem,
  {0af4ba00-23af-4b94-a798-5ad11ca2914f}, ! Handle
  90.1 Windows Window Fixed 2644 Vnl-ClrMpr-Ins-ClrSue, ! Name
  ,                                       ! Type
  Construction,                           ! Line Item Type
  90.1 Windows Window Fixed 2644 Vnl-ClrMpr-Ins-ClrSue, ! Item Name
  ,                                       ! Object End Use Key
  ,                                       ! Quantity {dimensionless}
  0,                                      ! Material Cost {$}
  CostPerArea;                            ! Material Cost Units

OS:Construction,
  {cda4e376-2e8a-4667-9764-acd1a0a640bf}, ! Handle
  90.1 Windows Window Fixed 2644 Vnl-ClrMpr-Ins-ClrSue, ! Name
  ,                                       ! Surface Rendering Name
  {f937e15b-df8a-4e4e-bb8b-625fe1b7ffaf}; ! Layer 1

