
OS:Version,
  {01add335-0ded-4be5-b35d-6f4859d0f833}, !- Handle
  1.1.0;                                  !- Version Identifier

OS:Construction,
  {b9d9f86d-aeb1-462a-a2bd-e12b51a20fb5}, !- Handle
  Trp LoE (e5=.1) Clr 3mm/6mm Air,        !- Name
  ,                                       !- Surface Rendering Name
  {6c2012ae-f9c4-4850-a590-8fbf002b5340}, !- Layer 1
  {4e89b91b-eb5c-4c88-a2f3-6fb964eea992}, !- Layer 2
  {6c2012ae-f9c4-4850-a590-8fbf002b5340}, !- Layer 3
  {4e89b91b-eb5c-4c88-a2f3-6fb964eea992}, !- Layer 4
  {0f6df9f7-ac79-4b7a-893a-e2a4e1049c09}; !- Layer 5

OS:WindowMaterial:Glazing,
  {6c2012ae-f9c4-4850-a590-8fbf002b5340}, !- Handle
  CLEAR 3MM,                              !- Name
  SpectralAverage,                        !- Optical Data Type
  ,                                       !- Window Glass Spectral Data Set Name
  0.003,                                  !- Thickness {m}
  0.837,                                  !- Solar Transmittance at Normal Incidence
  0.075,                                  !- Front Side Solar Reflectance at Normal Incidence
  0.075,                                  !- Back Side Solar Reflectance at Normal Incidence
  0.898,                                  !- Visible Transmittance at Normal Incidence
  0.081,                                  !- Front Side Visible Reflectance at Normal Incidence
  0.081,                                  !- Back Side Visible Reflectance at Normal Incidence
  0,                                      !- Infrared Transmittance at Normal Incidence
  0.84,                                   !- Front Side Infrared Hemispherical Emissivity
  0.84,                                   !- Back Side Infrared Hemispherical Emissivity
  0.9;                                    !- Conductivity {W/m-K}

OS:WindowMaterial:Gas,
  {4e89b91b-eb5c-4c88-a2f3-6fb964eea992}, !- Handle
  AIR 6MM,                                !- Name
  Air,                                    !- Gas Type
  0.0063;                                 !- Thickness {m}

OS:WindowMaterial:Glazing,
  {0f6df9f7-ac79-4b7a-893a-e2a4e1049c09}, !- Handle
  LoE CLEAR 3MM Rev,                      !- Name
  SpectralAverage,                        !- Optical Data Type
  ,                                       !- Window Glass Spectral Data Set Name
  0.003,                                  !- Thickness {m}
  0.63,                                   !- Solar Transmittance at Normal Incidence
  0.22,                                   !- Front Side Solar Reflectance at Normal Incidence
  0.19,                                   !- Back Side Solar Reflectance at Normal Incidence
  0.85,                                   !- Visible Transmittance at Normal Incidence
  0.079,                                  !- Front Side Visible Reflectance at Normal Incidence
  0.056,                                  !- Back Side Visible Reflectance at Normal Incidence
  0,                                      !- Infrared Transmittance at Normal Incidence
  0.1,                                    !- Front Side Infrared Hemispherical Emissivity
  0.84,                                   !- Back Side Infrared Hemispherical Emissivity
  0.9;                                    !- Conductivity {W/m-K}

