
OS:Version,
  {cc2c161c-5230-46c2-bc85-9a640f9326ea}, ! Handle
  0.9.3;                                  ! Version Identifier

OS:Construction,
  {6a71c055-f459-468a-9275-e07638d57546}, ! Handle
  90.1-2007 Nonres 1A Roof IEAD,          ! Name
  ,                                       ! Surface Rendering Name
  {a87eb9cd-bb0b-40d2-97d6-2e1c71724a33}, ! Layer 1
  {97d10d70-f2fe-4e5e-9862-84ee7c22c00a}, ! Layer 2
  {64de8b04-2ccb-4924-a00d-9318666eb196}; ! Layer 3

OS:Material,
  {a87eb9cd-bb0b-40d2-97d6-2e1c71724a33}, ! Handle
  Roof Membrane,                          ! Name
  VeryRough,                              ! Roughness
  0.0095,                                 ! Thickness {m}
  0.16,                                   ! Conductivity {W/m-K}
  1121.29,                                ! Density {kg/m3}
  1460,                                   ! Specific Heat {J/kg-K}
  0.9,                                    ! Thermal Absorptance
  0.7,                                    ! Solar Absorptance
  0.7;                                    ! Visible Absorptance

OS:Material,
  {97d10d70-f2fe-4e5e-9862-84ee7c22c00a}, ! Handle
  Roof Insulation,                        ! Name
  MediumRough,                            ! Roughness
  0.124958,                               ! Thickness {m}
  0.049,                                  ! Conductivity {W/m-K}
  265,                                    ! Density {kg/m3}
  836.8,                                  ! Specific Heat {J/kg-K}
  0.9,                                    ! Thermal Absorptance
  0.7,                                    ! Solar Absorptance
  0.7;                                    ! Visible Absorptance

OS:Material,
  {64de8b04-2ccb-4924-a00d-9318666eb196}, ! Handle
  Metal Decking,                          ! Name
  MediumSmooth,                           ! Roughness
  0.001524,                               ! Thickness {m}
  45.006,                                 ! Conductivity {W/m-K}
  7680,                                   ! Density {kg/m3}
  418.4,                                  ! Specific Heat {J/kg-K}
  0.9,                                    ! Thermal Absorptance
  0.7,                                    ! Solar Absorptance
  0.3;                                    ! Visible Absorptance

OS:ComponentCost:LineItem,
  {0add5786-9d06-4888-85af-2925eacdb68f}, ! Handle
  90.1-2007 Nonres 1A Roof IEAD,          ! Name
  ,                                       ! Type
  Construction,                           ! Line Item Type
  90.1-2007 Nonres 1A Roof IEAD,          ! Item Name
  ,                                       ! Object End Use Key
  ,                                       ! Quantity {dimensionless}
  49.208,                                 ! Material Cost {$}
  CostPerArea;                            ! Material Cost Units

