
OS:Version,
  {6e3d5aae-a54f-4d9e-a4ac-b7726828fafc}, ! Handle
  0.9.3;                                  ! Version Identifier

OS:Material,
  {cf9c2c2f-ed23-4052-9d92-3886b43a7e15}, ! Handle
  1/2IN Gypsum,                           ! Name
  Smooth,                                 ! Roughness
  0.01271,                                ! Thickness {m}
  0.16,                                   ! Conductivity {W/m-K}
  784.9,                                  ! Density {kg/m3}
  830,                                    ! Specific Heat {J/kg-K}
  0.9,                                    ! Thermal Absorptance
  0.92,                                   ! Solar Absorptance
  0.92;                                   ! Visible Absorptance

OS:ComponentCost:LineItem,
  {acfbb602-e648-40c0-9f9f-8a55e01aa3fd}, ! Handle
  90.1-1999 Res B9 Ext Wall Steel-Framed, ! Name
  ,                                       ! Type
  Construction,                           ! Line Item Type
  90.1-1999 Res B9 Ext Wall Steel-Framed, ! Item Name
  ,                                       ! Object End Use Key
  ,                                       ! Quantity {dimensionless}
  87.08,                                  ! Material Cost {$}
  CostPerArea;                            ! Material Cost Units

OS:Material,
  {9acd897c-ab81-476f-acc0-cfd5e2337e2e}, ! Handle
  Wall Insulation [1],                    ! Name
  MediumRough,                            ! Roughness
  0.0373223,                              ! Thickness {m}
  0.045,                                  ! Conductivity {W/m-K}
  265,                                    ! Density {kg/m3}
  836.8,                                  ! Specific Heat {J/kg-K}
  0.9,                                    ! Thermal Absorptance
  0.7,                                    ! Solar Absorptance
  0.7;                                    ! Visible Absorptance

OS:Material:NoMass,
  {8d751e29-8b03-4ff2-a03c-7fc8792c1a40}, ! Handle
  MAT-SHEATH,                             ! Name
  Rough,                                  ! Roughness
  0.36256,                                ! Thermal Resistance {m2-K/W}
  0.9,                                    ! Thermal Absorptance
  0.7,                                    ! Solar Absorptance
  0.7;                                    ! Visible Absorptance

OS:Construction,
  {5123d7c5-e7b9-4630-b77b-b9406c5fed67}, ! Handle
  90.1-1999 Res B9 Ext Wall Steel-Framed, ! Name
  ,                                       ! Surface Rendering Name
  {8d751e29-8b03-4ff2-a03c-7fc8792c1a40}, ! Layer 1
  {9acd897c-ab81-476f-acc0-cfd5e2337e2e}, ! Layer 2
  {cf9c2c2f-ed23-4052-9d92-3886b43a7e15}; ! Layer 3

