
OS:Version,
  {45208e08-7fc2-4968-8e1f-ee13f9285be8}, ! Handle
  0.9.3;                                  ! Version Identifier

OS:Construction,
  {1d48f294-0045-4d3f-8c28-c7ab4ab304ea}, ! Handle
  90.1-1999 Nonres B8 Ext Wall Wood-Framed and Other, ! Name
  ,                                       ! Surface Rendering Name
  {b5f4b108-8993-4df3-9504-bf89d2ca0bfb}, ! Layer 1
  {c8cfe00d-aa4b-4cd9-a506-8e1d9b4cd6d9}, ! Layer 2
  {aa71e985-3f00-4d55-bd01-adb100047cf3}; ! Layer 3

OS:Material,
  {b5f4b108-8993-4df3-9504-bf89d2ca0bfb}, ! Handle
  Wood Siding,                            ! Name
  MediumSmooth,                           ! Roughness
  0.01,                                   ! Thickness {m}
  0.11,                                   ! Conductivity {W/m-K}
  544.62,                                 ! Density {kg/m3}
  1210,                                   ! Specific Heat {J/kg-K}
  0.9,                                    ! Thermal Absorptance
  0.78,                                   ! Solar Absorptance
  0.78;                                   ! Visible Absorptance

OS:Material,
  {c8cfe00d-aa4b-4cd9-a506-8e1d9b4cd6d9}, ! Handle
  Wall Insulation [2],                    ! Name
  MediumRough,                            ! Roughness
  0.0746874,                              ! Thickness {m}
  0.045,                                  ! Conductivity {W/m-K}
  265,                                    ! Density {kg/m3}
  836.8,                                  ! Specific Heat {J/kg-K}
  0.9,                                    ! Thermal Absorptance
  0.7,                                    ! Solar Absorptance
  0.7;                                    ! Visible Absorptance

OS:Material,
  {aa71e985-3f00-4d55-bd01-adb100047cf3}, ! Handle
  1/2IN Gypsum,                           ! Name
  Smooth,                                 ! Roughness
  0.01271,                                ! Thickness {m}
  0.16,                                   ! Conductivity {W/m-K}
  784.9,                                  ! Density {kg/m3}
  830,                                    ! Specific Heat {J/kg-K}
  0.9,                                    ! Thermal Absorptance
  0.92,                                   ! Solar Absorptance
  0.92;                                   ! Visible Absorptance

OS:ComponentCost:LineItem,
  {4439bf5f-40c3-4a56-b8e7-5af15f00d6f3}, ! Handle
  90.1-1999 Nonres B8 Ext Wall Wood-Framed and Other, ! Name
  ,                                       ! Type
  Construction,                           ! Line Item Type
  90.1-1999 Nonres B8 Ext Wall Wood-Framed and Other, ! Item Name
  ,                                       ! Object End Use Key
  ,                                       ! Quantity {dimensionless}
  73.056,                                 ! Material Cost {$}
  CostPerArea;                            ! Material Cost Units

