
OS:Version,
  {03e658fa-1d1f-42a0-9439-a3200dd6305f}, ! Handle
  0.9.3;                                  ! Version Identifier

OS:Construction,
  {0dc97c0e-ed0d-4702-a992-38b85d180751}, ! Handle
  90.1-1999 Nonres B8 Ext Wall Wood-Framed and Other, ! Name
  ,                                       ! Surface Rendering Name
  {99c3ae3d-0383-4a18-9c4d-29e8d23c6e0c}, ! Layer 1
  {4cffb420-b3e0-474a-91ce-5b161577c018}, ! Layer 2
  {0665ab47-3409-472b-9ba4-d5d1e53b7dfd}; ! Layer 3

OS:Material,
  {99c3ae3d-0383-4a18-9c4d-29e8d23c6e0c}, ! Handle
  Wood Siding,                            ! Name
  MediumSmooth,                           ! Roughness
  0.01,                                   ! Thickness {m}
  0.11,                                   ! Conductivity {W/m-K}
  544.62,                                 ! Density {kg/m3}
  1210,                                   ! Specific Heat {J/kg-K}
  0.9,                                    ! Thermal Absorptance
  0.78,                                   ! Solar Absorptance
  0.78;                                   ! Visible Absorptance

OS:Material,
  {4cffb420-b3e0-474a-91ce-5b161577c018}, ! Handle
  Wall Insulation [2],                    ! Name
  MediumRough,                            ! Roughness
  0.0746874,                              ! Thickness {m}
  0.045,                                  ! Conductivity {W/m-K}
  265,                                    ! Density {kg/m3}
  836.8,                                  ! Specific Heat {J/kg-K}
  0.9,                                    ! Thermal Absorptance
  0.7,                                    ! Solar Absorptance
  0.7;                                    ! Visible Absorptance

OS:Material,
  {0665ab47-3409-472b-9ba4-d5d1e53b7dfd}, ! Handle
  1/2IN Gypsum,                           ! Name
  Smooth,                                 ! Roughness
  0.01271,                                ! Thickness {m}
  0.16,                                   ! Conductivity {W/m-K}
  784.9,                                  ! Density {kg/m3}
  830,                                    ! Specific Heat {J/kg-K}
  0.9,                                    ! Thermal Absorptance
  0.92,                                   ! Solar Absorptance
  0.92;                                   ! Visible Absorptance

OS:ComponentCost:LineItem,
  {1de98fa5-42fb-49f0-8504-33830c494670}, ! Handle
  90.1-1999 Nonres B8 Ext Wall Wood-Framed and Other, ! Name
  ,                                       ! Type
  Construction,                           ! Line Item Type
  90.1-1999 Nonres B8 Ext Wall Wood-Framed and Other, ! Item Name
  ,                                       ! Object End Use Key
  ,                                       ! Quantity {dimensionless}
  73.056,                                 ! Material Cost {$}
  CostPerArea;                            ! Material Cost Units

OS:ComponentData,
  {e074f407-ac84-4e6a-b2da-a92a4b5931f4}, ! Handle
  Component Data 1,                       ! Name
  {23b0c2d1-6c3e-4518-82da-3da2baef6d7b}, ! UUID
  {b59db12a-4492-4130-acfa-bcdcffce01e8}, ! Version UUID
  1363981072,                             ! Creation Timestamp
  1363981072,                             ! Version Timestamp
  {0dc97c0e-ed0d-4702-a992-38b85d180751}, ! Name of Object 1
  {99c3ae3d-0383-4a18-9c4d-29e8d23c6e0c}, ! Name of Object 2
  {4cffb420-b3e0-474a-91ce-5b161577c018}, ! Name of Object 3
  {0665ab47-3409-472b-9ba4-d5d1e53b7dfd}, ! Name of Object 4
  {1de98fa5-42fb-49f0-8504-33830c494670}; ! Name of Object 5

