
OS:Version,
  {c9d51f93-bed7-4294-82d1-06706a42e7b3}, ! Handle
  0.9.3;                                  ! Version Identifier

OS:Material,
  {71cc5547-e009-48ae-b8ac-24167a52770c}, ! Handle
  1IN Wood Decking,                       ! Name
  MediumSmooth,                           ! Roughness
  0.0254,                                 ! Thickness {m}
  0.1211,                                 ! Conductivity {W/m-K}
  593,                                    ! Density {kg/m3}
  2510,                                   ! Specific Heat {J/kg-K}
  0.9,                                    ! Thermal Absorptance
  0.78,                                   ! Solar Absorptance
  0.78;                                   ! Visible Absorptance

OS:ComponentCost:LineItem,
  {27797487-caee-41f1-bec6-edabd14e68f7}, ! Handle
  90.1-2007 Res 8A Roof Attic and Other,  ! Name
  ,                                       ! Type
  Construction,                           ! Line Item Type
  90.1-2007 Res 8A Roof Attic and Other,  ! Item Name
  ,                                       ! Object End Use Key
  ,                                       ! Quantity {dimensionless}
  36.933,                                 ! Material Cost {$}
  CostPerArea;                            ! Material Cost Units

OS:Material,
  {467b6c40-ca56-40c8-b9fa-6dc6458cf0ae}, ! Handle
  Wood Shingles,                          ! Name
  VeryRough,                              ! Roughness
  0.0178,                                 ! Thickness {m}
  0.115,                                  ! Conductivity {W/m-K}
  513,                                    ! Density {kg/m3}
  1255,                                   ! Specific Heat {J/kg-K}
  0.9,                                    ! Thermal Absorptance
  0.78,                                   ! Solar Absorptance
  0.78;                                   ! Visible Absorptance

OS:Construction,
  {66f29f85-423b-40ac-b196-12af2302e13e}, ! Handle
  90.1-2007 Res 8A Roof Attic and Other,  ! Name
  ,                                       ! Surface Rendering Name
  {467b6c40-ca56-40c8-b9fa-6dc6458cf0ae}, ! Layer 1
  {71cc5547-e009-48ae-b8ac-24167a52770c}, ! Layer 2
  {38025f93-1df8-4c6e-9949-a399880c8418}, ! Layer 3
  {ced0096c-c2d9-443b-bd25-cfb07735a4bc}; ! Layer 4

OS:Material,
  {38025f93-1df8-4c6e-9949-a399880c8418}, ! Handle
  Roof Insulation [17],                   ! Name
  MediumRough,                            ! Roughness
  0.378576,                               ! Thickness {m}
  0.049,                                  ! Conductivity {W/m-K}
  265,                                    ! Density {kg/m3}
  836.8,                                  ! Specific Heat {J/kg-K}
  0.9,                                    ! Thermal Absorptance
  0.7,                                    ! Solar Absorptance
  0.7;                                    ! Visible Absorptance

OS:Material,
  {ced0096c-c2d9-443b-bd25-cfb07735a4bc}, ! Handle
  1/2IN Gypsum,                           ! Name
  Smooth,                                 ! Roughness
  0.01271,                                ! Thickness {m}
  0.16,                                   ! Conductivity {W/m-K}
  784.9,                                  ! Density {kg/m3}
  830,                                    ! Specific Heat {J/kg-K}
  0.9,                                    ! Thermal Absorptance
  0.92,                                   ! Solar Absorptance
  0.92;                                   ! Visible Absorptance

