
OS:Version,
  {e1c04769-8090-46c3-82da-4777f79d54e5}, ! Handle
  0.9.3;                                  ! Version Identifier

OS:ComponentCost:LineItem,
  {52953d0a-ad60-4394-b14c-8a9bdffd463e}, ! Handle
  90.1-2007 Res 8A Window Nonmetal framing, ! Name
  ,                                       ! Type
  Construction,                           ! Line Item Type
  90.1-2007 Res 8A Window Nonmetal framing, ! Item Name
  ,                                       ! Object End Use Key
  ,                                       ! Quantity {dimensionless}
  508.362,                                ! Material Cost {$}
  CostPerArea;                            ! Material Cost Units

OS:Construction,
  {bf03cd1c-4074-42ea-8d3a-0085e60d8829}, ! Handle
  90.1-2007 Res 8A Window Nonmetal framing, ! Name
  ,                                       ! Surface Rendering Name
  {10fc7ed5-f646-414c-a2ac-a2d7e8a265d5}; ! Layer 1

OS:WindowMaterial:Glazing,
  {10fc7ed5-f646-414c-a2ac-a2d7e8a265d5}, ! Handle
  Theoretical Glass [188],                ! Name
  SpectralAverage,                        ! Optical Data Type
  ,                                       ! Window Glass Spectral Data Set Name
  0.003,                                  ! Thickness {m}
  0.445058,                               ! Solar Transmittance at Normal Incidence
  0.504942,                               ! Front Side Solar Reflectance at Normal Incidence
  0.504942,                               ! Back Side Solar Reflectance at Normal Incidence
  0.450308,                               ! Visible Transmittance at Normal Incidence
  0.499692,                               ! Front Side Visible Reflectance at Normal Incidence
  0.499692,                               ! Back Side Visible Reflectance at Normal Incidence
  0,                                      ! Infrared Transmittance at Normal Incidence
  0.9,                                    ! Front Side Infrared Hemispherical Emissivity
  0.9,                                    ! Back Side Infrared Hemispherical Emissivity
  0.00881723;                             ! Conductivity {W/m-K}

