
OS:Version,
  {1a82afad-0eb0-47a8-b6b4-5c3a31354a8b}, ! Handle
  0.9.3;                                  ! Version Identifier

OS:ComponentCost:LineItem,
  {4af742f7-2a38-4b46-8a68-0d0cbc9d2b7a}, ! Handle
  90.1-1999 Nonres B21 Ext Wall Wood-Framed and Other, ! Name
  ,                                       ! Type
  Construction,                           ! Line Item Type
  90.1-1999 Nonres B21 Ext Wall Wood-Framed and Other, ! Item Name
  ,                                       ! Object End Use Key
  ,                                       ! Quantity {dimensionless}
  73.056,                                 ! Material Cost {$}
  CostPerArea;                            ! Material Cost Units

OS:Material,
  {85b7f391-9b4d-4065-b194-cee49fd1b0be}, ! Handle
  Wall Insulation [2],                    ! Name
  MediumRough,                            ! Roughness
  0.0746874,                              ! Thickness {m}
  0.045,                                  ! Conductivity {W/m-K}
  265,                                    ! Density {kg/m3}
  836.8,                                  ! Specific Heat {J/kg-K}
  0.9,                                    ! Thermal Absorptance
  0.7,                                    ! Solar Absorptance
  0.7;                                    ! Visible Absorptance

OS:Material,
  {a17b2210-5d1b-4827-b753-9ac62ad4e5f4}, ! Handle
  1/2IN Gypsum,                           ! Name
  Smooth,                                 ! Roughness
  0.01271,                                ! Thickness {m}
  0.16,                                   ! Conductivity {W/m-K}
  784.9,                                  ! Density {kg/m3}
  830,                                    ! Specific Heat {J/kg-K}
  0.9,                                    ! Thermal Absorptance
  0.92,                                   ! Solar Absorptance
  0.92;                                   ! Visible Absorptance

OS:Construction,
  {e0a67ff4-12fd-49bf-b1ef-ca9b5926017e}, ! Handle
  90.1-1999 Nonres B21 Ext Wall Wood-Framed and Other, ! Name
  ,                                       ! Surface Rendering Name
  {591145d6-0747-44cc-8610-41f3b00adbd8}, ! Layer 1
  {85b7f391-9b4d-4065-b194-cee49fd1b0be}, ! Layer 2
  {a17b2210-5d1b-4827-b753-9ac62ad4e5f4}; ! Layer 3

OS:Material,
  {591145d6-0747-44cc-8610-41f3b00adbd8}, ! Handle
  Wood Siding,                            ! Name
  MediumSmooth,                           ! Roughness
  0.01,                                   ! Thickness {m}
  0.11,                                   ! Conductivity {W/m-K}
  544.62,                                 ! Density {kg/m3}
  1210,                                   ! Specific Heat {J/kg-K}
  0.9,                                    ! Thermal Absorptance
  0.78,                                   ! Solar Absorptance
  0.78;                                   ! Visible Absorptance

