
OS:Version,
  {029dbd11-08dc-42c5-b94f-16eeb82fa1c4}, ! Handle
  0.9.3;                                  ! Version Identifier

OS:Construction,
  {2180424c-a087-4483-96c3-fc0089bdd44d}, ! Handle
  90.1-1999 Nonres B21 Ext Wall Wood-Framed and Other, ! Name
  ,                                       ! Surface Rendering Name
  {16539351-4f3d-4225-8d61-de880ee27dab}, ! Layer 1
  {324088cc-5931-4031-96ba-6cab7372cf03}, ! Layer 2
  {003b1f2e-2c1d-44ee-8249-d84057e3285f}; ! Layer 3

OS:Material,
  {16539351-4f3d-4225-8d61-de880ee27dab}, ! Handle
  Wood Siding,                            ! Name
  MediumSmooth,                           ! Roughness
  0.01,                                   ! Thickness {m}
  0.11,                                   ! Conductivity {W/m-K}
  544.62,                                 ! Density {kg/m3}
  1210,                                   ! Specific Heat {J/kg-K}
  0.9,                                    ! Thermal Absorptance
  0.78,                                   ! Solar Absorptance
  0.78;                                   ! Visible Absorptance

OS:Material,
  {324088cc-5931-4031-96ba-6cab7372cf03}, ! Handle
  Wall Insulation [2],                    ! Name
  MediumRough,                            ! Roughness
  0.0746874,                              ! Thickness {m}
  0.045,                                  ! Conductivity {W/m-K}
  265,                                    ! Density {kg/m3}
  836.8,                                  ! Specific Heat {J/kg-K}
  0.9,                                    ! Thermal Absorptance
  0.7,                                    ! Solar Absorptance
  0.7;                                    ! Visible Absorptance

OS:Material,
  {003b1f2e-2c1d-44ee-8249-d84057e3285f}, ! Handle
  1/2IN Gypsum,                           ! Name
  Smooth,                                 ! Roughness
  0.01271,                                ! Thickness {m}
  0.16,                                   ! Conductivity {W/m-K}
  784.9,                                  ! Density {kg/m3}
  830,                                    ! Specific Heat {J/kg-K}
  0.9,                                    ! Thermal Absorptance
  0.92,                                   ! Solar Absorptance
  0.92;                                   ! Visible Absorptance

OS:ComponentCost:LineItem,
  {50faf074-16b5-4f66-9ad6-8131e17cc091}, ! Handle
  90.1-1999 Nonres B21 Ext Wall Wood-Framed and Other, ! Name
  ,                                       ! Type
  Construction,                           ! Line Item Type
  90.1-1999 Nonres B21 Ext Wall Wood-Framed and Other, ! Item Name
  ,                                       ! Object End Use Key
  ,                                       ! Quantity {dimensionless}
  73.056,                                 ! Material Cost {$}
  CostPerArea;                            ! Material Cost Units

OS:ComponentData,
  {3d5bb56a-2415-4dca-9497-887dc2be4436}, ! Handle
  Component Data 1,                       ! Name
  {1b8d669a-72f5-42d0-8297-a7bdacbc8887}, ! UUID
  {bb46baf5-8ba7-487a-92d5-5b079077efbd}, ! Version UUID
  1363981134,                             ! Creation Timestamp
  1363981134,                             ! Version Timestamp
  {2180424c-a087-4483-96c3-fc0089bdd44d}, ! Name of Object 1
  {16539351-4f3d-4225-8d61-de880ee27dab}, ! Name of Object 2
  {324088cc-5931-4031-96ba-6cab7372cf03}, ! Name of Object 3
  {003b1f2e-2c1d-44ee-8249-d84057e3285f}, ! Name of Object 4
  {50faf074-16b5-4f66-9ad6-8131e17cc091}; ! Name of Object 5

