
OS:Version,
  {6d03d3fe-4e1d-438f-af6e-a785c868baca}, ! Handle
  0.9.3;                                  ! Version Identifier

OS:Construction,
  {31682fe6-c954-4c0b-9a5e-f05d9b75a034}, ! Handle
  AEDG K12 Nonres 3A Attic Floor,         ! Name
  ,                                       ! Surface Rendering Name
  {9827c5da-3052-4ed1-9137-2d2df40aba87}, ! Layer 1
  {ffec7ad3-37ba-43fd-a16d-81fba696cf36}, ! Layer 2
  {deeb5217-0178-40cc-935f-677aaa8093a7}; ! Layer 3

OS:Material,
  {9827c5da-3052-4ed1-9137-2d2df40aba87}, ! Handle
  1/2IN Gypsum Top,                       ! Name
  Smooth,                                 ! Roughness
  0.01271,                                ! Thickness {m}
  0.16,                                   ! Conductivity {W/m-K}
  784.9,                                  ! Density {kg/m3}
  830,                                    ! Specific Heat {J/kg-K}
  0.9,                                    ! Thermal Absorptance
  0.92,                                   ! Solar Absorptance
  0.92;                                   ! Visible Absorptance

OS:Material,
  {ffec7ad3-37ba-43fd-a16d-81fba696cf36}, ! Handle
  AtticFloor Insulation,                  ! Name
  MediumRough,                            ! Roughness
  0.237853,                               ! Thickness {m}
  0.049,                                  ! Conductivity {W/m-K}
  265,                                    ! Density {kg/m3}
  836.8,                                  ! Specific Heat {J/kg-K}
  0.9,                                    ! Thermal Absorptance
  0.7,                                    ! Solar Absorptance
  0.7;                                    ! Visible Absorptance

OS:Material,
  {deeb5217-0178-40cc-935f-677aaa8093a7}, ! Handle
  1/2IN Gypsum Bottom,                    ! Name
  Smooth,                                 ! Roughness
  0.01271,                                ! Thickness {m}
  0.16,                                   ! Conductivity {W/m-K}
  784.9,                                  ! Density {kg/m3}
  830,                                    ! Specific Heat {J/kg-K}
  0.9,                                    ! Thermal Absorptance
  0.92,                                   ! Solar Absorptance
  0.92;                                   ! Visible Absorptance

OS:ComponentCost:LineItem,
  {4cb356a7-41dc-47c3-8e10-64aef07aef90}, ! Handle
  AEDG K12 Nonres 3A Attic Floor,         ! Name
  ,                                       ! Type
  Construction,                           ! Line Item Type
  AEDG K12 Nonres 3A Attic Floor,         ! Item Name
  ,                                       ! Object End Use Key
  ,                                       ! Quantity {dimensionless}
  33.596,                                 ! Material Cost {$}
  CostPerArea;                            ! Material Cost Units

OS:ComponentData,
  {32805a9a-5b32-4137-af40-54355abbbb12}, ! Handle
  Component Data 1,                       ! Name
  {8092dc34-fe3e-44ad-be5d-9ec683e02a17}, ! UUID
  {38cca643-d3f4-4766-931f-269daddc8fe2}, ! Version UUID
  1363981887,                             ! Creation Timestamp
  1363981887,                             ! Version Timestamp
  {31682fe6-c954-4c0b-9a5e-f05d9b75a034}, ! Name of Object 1
  {9827c5da-3052-4ed1-9137-2d2df40aba87}, ! Name of Object 2
  {ffec7ad3-37ba-43fd-a16d-81fba696cf36}, ! Name of Object 3
  {deeb5217-0178-40cc-935f-677aaa8093a7}, ! Name of Object 4
  {4cb356a7-41dc-47c3-8e10-64aef07aef90}; ! Name of Object 5

