
OS:Version,
  {8f8c806f-adcb-4675-90cc-256c7795c4ff}, ! Handle
  0.9.3;                                  ! Version Identifier

OS:ComponentCost:LineItem,
  {2334ee5f-288a-46a1-924f-703a53bcdc54}, ! Handle
  AEDG K12 Nonres 3A Attic Floor,         ! Name
  ,                                       ! Type
  Construction,                           ! Line Item Type
  AEDG K12 Nonres 3A Attic Floor,         ! Item Name
  ,                                       ! Object End Use Key
  ,                                       ! Quantity {dimensionless}
  33.596,                                 ! Material Cost {$}
  CostPerArea;                            ! Material Cost Units

OS:Material,
  {efa2064f-c185-4bf7-b74e-2951274ff8c4}, ! Handle
  1/2IN Gypsum Bottom,                    ! Name
  Smooth,                                 ! Roughness
  0.01271,                                ! Thickness {m}
  0.16,                                   ! Conductivity {W/m-K}
  784.9,                                  ! Density {kg/m3}
  830,                                    ! Specific Heat {J/kg-K}
  0.9,                                    ! Thermal Absorptance
  0.92,                                   ! Solar Absorptance
  0.92;                                   ! Visible Absorptance

OS:Construction,
  {f5c23fe3-3d60-4ec9-97bf-89f082e94a10}, ! Handle
  AEDG K12 Nonres 3A Attic Floor,         ! Name
  ,                                       ! Surface Rendering Name
  {446cf142-56c8-4649-9278-07fc2b83a46f}, ! Layer 1
  {a88fc5bb-fdd6-40e4-a3ac-8fa5ae9c1ed4}, ! Layer 2
  {efa2064f-c185-4bf7-b74e-2951274ff8c4}; ! Layer 3

OS:Material,
  {446cf142-56c8-4649-9278-07fc2b83a46f}, ! Handle
  1/2IN Gypsum Top,                       ! Name
  Smooth,                                 ! Roughness
  0.01271,                                ! Thickness {m}
  0.16,                                   ! Conductivity {W/m-K}
  784.9,                                  ! Density {kg/m3}
  830,                                    ! Specific Heat {J/kg-K}
  0.9,                                    ! Thermal Absorptance
  0.92,                                   ! Solar Absorptance
  0.92;                                   ! Visible Absorptance

OS:Material,
  {a88fc5bb-fdd6-40e4-a3ac-8fa5ae9c1ed4}, ! Handle
  AtticFloor Insulation,                  ! Name
  MediumRough,                            ! Roughness
  0.237853,                               ! Thickness {m}
  0.049,                                  ! Conductivity {W/m-K}
  265,                                    ! Density {kg/m3}
  836.8,                                  ! Specific Heat {J/kg-K}
  0.9,                                    ! Thermal Absorptance
  0.7,                                    ! Solar Absorptance
  0.7;                                    ! Visible Absorptance

