
OS:Version,
  {2eb23a77-a86f-4b51-9d5b-1590187f2b1d}, ! Handle
  0.9.3;                                  ! Version Identifier

OS:Construction,
  {9e9174b6-d9da-493d-b70d-dd141c95d3ca}, ! Handle
  90.1-2001 Nonres B1 Ext Slab Unheated - 4in Slab with Carpet, ! Name
  ,                                       ! Surface Rendering Name
  {f1e4fd3f-ec91-4943-ae5b-c0f66cec15b6}, ! Layer 1
  {0f8def4d-aadb-4118-b80d-0e209678d479}; ! Layer 2

OS:Material,
  {f1e4fd3f-ec91-4943-ae5b-c0f66cec15b6}, ! Handle
  MAT-CC05 4 HW CONCRETE,                 ! Name
  Rough,                                  ! Roughness
  0.1016,                                 ! Thickness {m}
  1.311,                                  ! Conductivity {W/m-K}
  2240,                                   ! Density {kg/m3}
  836.8,                                  ! Specific Heat {J/kg-K}
  0.9,                                    ! Thermal Absorptance
  0.7,                                    ! Solar Absorptance
  0.7;                                    ! Visible Absorptance

OS:Material:NoMass,
  {0f8def4d-aadb-4118-b80d-0e209678d479}, ! Handle
  CP02 CARPET PAD,                        ! Name
  VeryRough,                              ! Roughness
  0.21648,                                ! Thermal Resistance {m2-K/W}
  0.9,                                    ! Thermal Absorptance
  0.7,                                    ! Solar Absorptance
  0.8;                                    ! Visible Absorptance

OS:ComponentCost:LineItem,
  {15afcafd-8c81-4432-beef-e4da071c8e8d}, ! Handle
  90.1-2001 Nonres B1 Ext Slab Unheated - 4in Slab with Carpet, ! Name
  ,                                       ! Type
  Construction,                           ! Line Item Type
  90.1-2001 Nonres B1 Ext Slab Unheated - 4in Slab with Carpet, ! Item Name
  ,                                       ! Object End Use Key
  ,                                       ! Quantity {dimensionless}
  45.52,                                  ! Material Cost {$}
  CostPerArea;                            ! Material Cost Units

OS:ComponentData,
  {da000073-1713-40b1-aab6-e32e84fa1dca}, ! Handle
  Component Data 1,                       ! Name
  {de395347-27e6-41fc-b758-b9eab3c23283}, ! UUID
  {3aa7cb98-67dc-4c1c-b99d-01fd0d5e57a2}, ! Version UUID
  1363981291,                             ! Creation Timestamp
  1363981291,                             ! Version Timestamp
  {9e9174b6-d9da-493d-b70d-dd141c95d3ca}, ! Name of Object 1
  {f1e4fd3f-ec91-4943-ae5b-c0f66cec15b6}, ! Name of Object 2
  {0f8def4d-aadb-4118-b80d-0e209678d479}, ! Name of Object 3
  {15afcafd-8c81-4432-beef-e4da071c8e8d}; ! Name of Object 4

