
OS:Version,
  {daa94b4e-9411-47bf-9813-7707e80907b3}, ! Handle
  0.9.3;                                  ! Version Identifier

OS:ComponentCost:LineItem,
  {e040326b-7ca9-4ff4-ad3e-866777a0172d}, ! Handle
  Title 24-2008 Nonres 5 Door Swinging,   ! Name
  ,                                       ! Type
  Construction,                           ! Line Item Type
  Title 24-2008 Nonres 5 Door Swinging,   ! Item Name
  ,                                       ! Object End Use Key
  ,                                       ! Quantity {dimensionless}
  0,                                      ! Material Cost {$}
  CostPerArea;                            ! Material Cost Units

OS:Construction,
  {121f7d7a-ca3a-4470-ac45-8911aad932cc}, ! Handle
  Title 24-2008 Nonres 5 Door Swinging,   ! Name
  ,                                       ! Surface Rendering Name
  {6e7d2023-5271-4f6c-a70a-d50cbe793f78}, ! Layer 1
  {6e1df605-29ac-4bdd-9b47-745320f041af}, ! Layer 2
  {ef04440e-d5f3-43b2-9b45-fcc1100c2d39}; ! Layer 3

OS:Material,
  {6e7d2023-5271-4f6c-a70a-d50cbe793f78}, ! Handle
  METAL Door Medium 18Ga_1,               ! Name
  Smooth,                                 ! Roughness
  0.0013106,                              ! Thickness {m}
  45.3149,                                ! Conductivity {W/m-K}
  7833.03,                                ! Density {kg/m3}
  502.08,                                 ! Specific Heat {J/kg-K}
  0.8,                                    ! Thermal Absorptance
  0.5,                                    ! Solar Absorptance
  0.5;                                    ! Visible Absorptance

OS:Material:NoMass,
  {6e1df605-29ac-4bdd-9b47-745320f041af}, ! Handle
  AIR [15],                               ! Name
  Smooth,                                 ! Roughness
  0.251781,                               ! Thermal Resistance {m2-K/W}
  0.8,                                    ! Thermal Absorptance
  0.5,                                    ! Solar Absorptance
  0.5;                                    ! Visible Absorptance

OS:Material,
  {ef04440e-d5f3-43b2-9b45-fcc1100c2d39}, ! Handle
  METAL Door Medium 18Ga_2,               ! Name
  Smooth,                                 ! Roughness
  0.0013106,                              ! Thickness {m}
  45.3149,                                ! Conductivity {W/m-K}
  7833.03,                                ! Density {kg/m3}
  502.08,                                 ! Specific Heat {J/kg-K}
  0.8,                                    ! Thermal Absorptance
  0.5,                                    ! Solar Absorptance
  0.5;                                    ! Visible Absorptance

