
OS:Version,
  {61512e22-32b5-4d80-87d5-acbdbb567cf6}, ! Handle
  0.9.3;                                  ! Version Identifier

OS:Construction,
  {2b165057-3ef6-4725-b89f-813804345fd2}, ! Handle
  Title 24-2008 Nonres 8 Roof Metal Building, ! Name
  ,                                       ! Surface Rendering Name
  {03cca609-010b-47ac-af59-c5035c54125e}, ! Layer 1
  {75522daa-b702-45d1-8f4c-7dc93d44245d}; ! Layer 2

OS:Material,
  {03cca609-010b-47ac-af59-c5035c54125e}, ! Handle
  Metal Roofing [1],                      ! Name
  MediumSmooth,                           ! Roughness
  0.001524,                               ! Thickness {m}
  45.006,                                 ! Conductivity {W/m-K}
  7680,                                   ! Density {kg/m3}
  418.4,                                  ! Specific Heat {J/kg-K}
  0.9,                                    ! Thermal Absorptance
  0.7,                                    ! Solar Absorptance
  0.85;                                   ! Visible Absorptance

OS:Material,
  {75522daa-b702-45d1-8f4c-7dc93d44245d}, ! Handle
  Roof Insulation [15],                   ! Name
  MediumRough,                            ! Roughness
  0.123565,                               ! Thickness {m}
  0.049,                                  ! Conductivity {W/m-K}
  265,                                    ! Density {kg/m3}
  836.8,                                  ! Specific Heat {J/kg-K}
  0.9,                                    ! Thermal Absorptance
  0.7,                                    ! Solar Absorptance
  0.7;                                    ! Visible Absorptance

OS:ComponentCost:LineItem,
  {246a5811-2801-4197-b1da-e74e3a06ba12}, ! Handle
  Title 24-2008 Nonres 8 Roof Metal Building, ! Name
  ,                                       ! Type
  Construction,                           ! Line Item Type
  Title 24-2008 Nonres 8 Roof Metal Building, ! Item Name
  ,                                       ! Object End Use Key
  ,                                       ! Quantity {dimensionless}
  38.21,                                  ! Material Cost {$}
  CostPerArea;                            ! Material Cost Units

OS:ComponentData,
  {e42ad604-b745-476d-9596-c26edf1188b7}, ! Handle
  Component Data 1,                       ! Name
  {103e0dc5-d8db-46e9-8a1c-e16225d933e8}, ! UUID
  {bfa18b47-8390-4660-b3a2-f0974e5a4eec}, ! Version UUID
  1363982044,                             ! Creation Timestamp
  1363982044,                             ! Version Timestamp
  {2b165057-3ef6-4725-b89f-813804345fd2}, ! Name of Object 1
  {03cca609-010b-47ac-af59-c5035c54125e}, ! Name of Object 2
  {75522daa-b702-45d1-8f4c-7dc93d44245d}, ! Name of Object 3
  {246a5811-2801-4197-b1da-e74e3a06ba12}; ! Name of Object 4

