
OS:Version,
  {aa63ff2d-1532-481b-99aa-56645c1eafa7}, ! Handle
  0.9.3;                                  ! Version Identifier

OS:Construction,
  {8ff18394-b962-444c-9097-1a9122117967}, ! Handle
  Title 24-2008 Nonres 8 Ext Slab Unheated - 8in Slab with Carpet, ! Name
  ,                                       ! Surface Rendering Name
  {0e1360dc-3080-432d-9eee-e729b54fb8ab}, ! Layer 1
  {95ef1c27-e831-4946-b8d2-e18286680e61}; ! Layer 2

OS:Material,
  {0e1360dc-3080-432d-9eee-e729b54fb8ab}, ! Handle
  MAT-CC05 8 HW CONCRETE,                 ! Name
  Rough,                                  ! Roughness
  0.20321,                                ! Thickness {m}
  1.311,                                  ! Conductivity {W/m-K}
  2240,                                   ! Density {kg/m3}
  836.8,                                  ! Specific Heat {J/kg-K}
  0.9,                                    ! Thermal Absorptance
  0.7,                                    ! Solar Absorptance
  0.7;                                    ! Visible Absorptance

OS:Material:NoMass,
  {95ef1c27-e831-4946-b8d2-e18286680e61}, ! Handle
  CP02 CARPET PAD,                        ! Name
  VeryRough,                              ! Roughness
  0.21648,                                ! Thermal Resistance {m2-K/W}
  0.9,                                    ! Thermal Absorptance
  0.7,                                    ! Solar Absorptance
  0.8;                                    ! Visible Absorptance

OS:ComponentCost:LineItem,
  {35d5b75a-2836-4abb-bae6-aa3c4fa05077}, ! Handle
  Title 24-2008 Nonres 8 Ext Slab Unheated - 8in Slab with Carpet, ! Name
  ,                                       ! Type
  Construction,                           ! Line Item Type
  Title 24-2008 Nonres 8 Ext Slab Unheated - 8in Slab with Carpet, ! Item Name
  ,                                       ! Object End Use Key
  ,                                       ! Quantity {dimensionless}
  45.52,                                  ! Material Cost {$}
  CostPerArea;                            ! Material Cost Units

OS:ComponentData,
  {794bb662-a116-4f9b-ba71-bf55027fac3d}, ! Handle
  Component Data 1,                       ! Name
  {8351ddb8-7d1c-4a3b-a428-e3e3814786f4}, ! UUID
  {50c3edd4-7b53-4362-a60b-2dab5ca7c569}, ! Version UUID
  1363982046,                             ! Creation Timestamp
  1363982046,                             ! Version Timestamp
  {8ff18394-b962-444c-9097-1a9122117967}, ! Name of Object 1
  {0e1360dc-3080-432d-9eee-e729b54fb8ab}, ! Name of Object 2
  {95ef1c27-e831-4946-b8d2-e18286680e61}, ! Name of Object 3
  {35d5b75a-2836-4abb-bae6-aa3c4fa05077}; ! Name of Object 4

