
OS:Version,
  {661011ac-b454-42ca-8cc6-af4a482f24aa}, ! Handle
  0.9.3;                                  ! Version Identifier

OS:Construction,
  {aa63f766-a775-4f83-8ed3-8c6825872283}, ! Handle
  Title 24-2008 Nonres 8 Ext Slab Unheated - 8in Slab with Carpet, ! Name
  ,                                       ! Surface Rendering Name
  {0e51c0e4-0352-4911-85a6-3cdaa1f8922c}, ! Layer 1
  {11e87dfa-5600-4463-a6fb-a9e0930981c9}; ! Layer 2

OS:Material,
  {0e51c0e4-0352-4911-85a6-3cdaa1f8922c}, ! Handle
  MAT-CC05 8 HW CONCRETE,                 ! Name
  Rough,                                  ! Roughness
  0.20321,                                ! Thickness {m}
  1.311,                                  ! Conductivity {W/m-K}
  2240,                                   ! Density {kg/m3}
  836.8,                                  ! Specific Heat {J/kg-K}
  0.9,                                    ! Thermal Absorptance
  0.7,                                    ! Solar Absorptance
  0.7;                                    ! Visible Absorptance

OS:Material:NoMass,
  {11e87dfa-5600-4463-a6fb-a9e0930981c9}, ! Handle
  CP02 CARPET PAD,                        ! Name
  VeryRough,                              ! Roughness
  0.21648,                                ! Thermal Resistance {m2-K/W}
  0.9,                                    ! Thermal Absorptance
  0.7,                                    ! Solar Absorptance
  0.8;                                    ! Visible Absorptance

OS:ComponentCost:LineItem,
  {793e48aa-0ef7-4e78-abe5-95ebfd2b1cb2}, ! Handle
  Title 24-2008 Nonres 8 Ext Slab Unheated - 8in Slab with Carpet, ! Name
  ,                                       ! Type
  Construction,                           ! Line Item Type
  Title 24-2008 Nonres 8 Ext Slab Unheated - 8in Slab with Carpet, ! Item Name
  ,                                       ! Object End Use Key
  ,                                       ! Quantity {dimensionless}
  45.52,                                  ! Material Cost {$}
  CostPerArea;                            ! Material Cost Units

