
OS:Version,
  {b130e42e-a729-4d83-9eff-3c1654b0b8a7}, !- Handle
  1.1.0;                                  !- Version Identifier

OS:Construction,
  {19795c0f-d0de-4ba9-9778-edafee1cc45c}, !- Handle
  Dbl Ref-A-L Clr 6mm/13mm Arg,           !- Name
  ,                                       !- Surface Rendering Name
  {721eaa5a-c8f0-4172-a4d6-749da88bb3e6}, !- Layer 1
  {e48f59f2-4bbc-4d38-903a-2e3bf86b1c69}, !- Layer 2
  {42e92669-28e5-4f2d-b13e-40d5b0fe5c3e}; !- Layer 3

OS:WindowMaterial:Glazing,
  {721eaa5a-c8f0-4172-a4d6-749da88bb3e6}, !- Handle
  REF A CLEAR LO 6MM,                     !- Name
  SpectralAverage,                        !- Optical Data Type
  ,                                       !- Window Glass Spectral Data Set Name
  0.006,                                  !- Thickness {m}
  0.066,                                  !- Solar Transmittance at Normal Incidence
  0.341,                                  !- Front Side Solar Reflectance at Normal Incidence
  0.493,                                  !- Back Side Solar Reflectance at Normal Incidence
  0.08,                                   !- Visible Transmittance at Normal Incidence
  0.41,                                   !- Front Side Visible Reflectance at Normal Incidence
  0.37,                                   !- Back Side Visible Reflectance at Normal Incidence
  0,                                      !- Infrared Transmittance at Normal Incidence
  0.84,                                   !- Front Side Infrared Hemispherical Emissivity
  0.4,                                    !- Back Side Infrared Hemispherical Emissivity
  0.9;                                    !- Conductivity {W/m-K}

OS:WindowMaterial:Gas,
  {e48f59f2-4bbc-4d38-903a-2e3bf86b1c69}, !- Handle
  ARGON 13MM,                             !- Name
  Argon,                                  !- Gas Type
  0.0127;                                 !- Thickness {m}

OS:WindowMaterial:Glazing,
  {42e92669-28e5-4f2d-b13e-40d5b0fe5c3e}, !- Handle
  CLEAR 6MM,                              !- Name
  SpectralAverage,                        !- Optical Data Type
  ,                                       !- Window Glass Spectral Data Set Name
  0.006,                                  !- Thickness {m}
  0.775,                                  !- Solar Transmittance at Normal Incidence
  0.071,                                  !- Front Side Solar Reflectance at Normal Incidence
  0.071,                                  !- Back Side Solar Reflectance at Normal Incidence
  0.881,                                  !- Visible Transmittance at Normal Incidence
  0.08,                                   !- Front Side Visible Reflectance at Normal Incidence
  0.08,                                   !- Back Side Visible Reflectance at Normal Incidence
  0,                                      !- Infrared Transmittance at Normal Incidence
  0.84,                                   !- Front Side Infrared Hemispherical Emissivity
  0.84,                                   !- Back Side Infrared Hemispherical Emissivity
  0.9;                                    !- Conductivity {W/m-K}

