
OS:Version,
  {ebb5f87b-bf1e-4fcd-a4c0-02f58397d337}, ! Handle
  0.9.3;                                  ! Version Identifier

OS:Material,
  {9154d8e2-e7fa-41d1-9402-bfcf44645f2d}, ! Handle
  Wood Shingles,                          ! Name
  VeryRough,                              ! Roughness
  0.0178,                                 ! Thickness {m}
  0.115,                                  ! Conductivity {W/m-K}
  513,                                    ! Density {kg/m3}
  1255,                                   ! Specific Heat {J/kg-K}
  0.9,                                    ! Thermal Absorptance
  0.78,                                   ! Solar Absorptance
  0.78;                                   ! Visible Absorptance

OS:Material,
  {6e541cc9-8f6c-433e-a150-c1d13cef18af}, ! Handle
  1/2IN Gypsum,                           ! Name
  Smooth,                                 ! Roughness
  0.01271,                                ! Thickness {m}
  0.16,                                   ! Conductivity {W/m-K}
  784.9,                                  ! Density {kg/m3}
  830,                                    ! Specific Heat {J/kg-K}
  0.9,                                    ! Thermal Absorptance
  0.92,                                   ! Solar Absorptance
  0.92;                                   ! Visible Absorptance

OS:ComponentCost:LineItem,
  {7b6f56e2-88f7-465c-98d4-9095aceb07f2}, ! Handle
  189.1-2009 Res 2A Roof Attic and Other, ! Name
  ,                                       ! Type
  Construction,                           ! Line Item Type
  189.1-2009 Res 2A Roof Attic and Other, ! Item Name
  ,                                       ! Object End Use Key
  ,                                       ! Quantity {dimensionless}
  36.871,                                 ! Material Cost {$}
  CostPerArea;                            ! Material Cost Units

OS:Material,
  {e62009d1-8e50-42a2-b7d8-cf2a37798fb0}, ! Handle
  Roof Insulation [23],                   ! Name
  MediumRough,                            ! Roughness
  0.375211,                               ! Thickness {m}
  0.049,                                  ! Conductivity {W/m-K}
  265,                                    ! Density {kg/m3}
  836.8,                                  ! Specific Heat {J/kg-K}
  0.9,                                    ! Thermal Absorptance
  0.7,                                    ! Solar Absorptance
  0.7;                                    ! Visible Absorptance

OS:Material,
  {20de6a8b-20ba-44ea-99fc-1364fb4832dd}, ! Handle
  1IN Wood Decking,                       ! Name
  MediumSmooth,                           ! Roughness
  0.0254,                                 ! Thickness {m}
  0.1211,                                 ! Conductivity {W/m-K}
  593,                                    ! Density {kg/m3}
  2510,                                   ! Specific Heat {J/kg-K}
  0.9,                                    ! Thermal Absorptance
  0.78,                                   ! Solar Absorptance
  0.78;                                   ! Visible Absorptance

OS:Construction,
  {5209e962-8605-4841-a27c-1dd5e1ed51aa}, ! Handle
  189.1-2009 Res 2A Roof Attic and Other, ! Name
  ,                                       ! Surface Rendering Name
  {9154d8e2-e7fa-41d1-9402-bfcf44645f2d}, ! Layer 1
  {20de6a8b-20ba-44ea-99fc-1364fb4832dd}, ! Layer 2
  {e62009d1-8e50-42a2-b7d8-cf2a37798fb0}, ! Layer 3
  {6e541cc9-8f6c-433e-a150-c1d13cef18af}; ! Layer 4

