
OS:Version,
  {c44e91c6-e488-4d33-89eb-13a609e8ff13}, ! Handle
  0.9.3;                                  ! Version Identifier

OS:Construction,
  {87f88db4-fb0e-49f2-9c04-ef51b9654dd8}, ! Handle
  90.1 Windows Window Fixed 2524 Vnl-ClrMpr-Std-ClrPye, ! Name
  ,                                       ! Surface Rendering Name
  {00d1a8fc-9bdc-4f12-a8c3-00eb19d63210}; ! Layer 1

OS:WindowMaterial:Glazing,
  {00d1a8fc-9bdc-4f12-a8c3-00eb19d63210}, ! Handle
  Theoretical Glass [368],                ! Name
  SpectralAverage,                        ! Optical Data Type
  ,                                       ! Window Glass Spectral Data Set Name
  0.003,                                  ! Thickness {m}
  0.395248,                               ! Solar Transmittance at Normal Incidence
  0.554752,                               ! Front Side Solar Reflectance at Normal Incidence
  0.554752,                               ! Back Side Solar Reflectance at Normal Incidence
  0.390045,                               ! Visible Transmittance at Normal Incidence
  0.559955,                               ! Front Side Visible Reflectance at Normal Incidence
  0.559955,                               ! Back Side Visible Reflectance at Normal Incidence
  0,                                      ! Infrared Transmittance at Normal Incidence
  0.9,                                    ! Front Side Infrared Hemispherical Emissivity
  0.9,                                    ! Back Side Infrared Hemispherical Emissivity
  0.0103546;                              ! Conductivity {W/m-K}

OS:ComponentCost:LineItem,
  {0ecc07f0-1925-4ac6-aa18-947304dafcc3}, ! Handle
  90.1 Windows Window Fixed 2524 Vnl-ClrMpr-Std-ClrPye, ! Name
  ,                                       ! Type
  Construction,                           ! Line Item Type
  90.1 Windows Window Fixed 2524 Vnl-ClrMpr-Std-ClrPye, ! Item Name
  ,                                       ! Object End Use Key
  ,                                       ! Quantity {dimensionless}
  0,                                      ! Material Cost {$}
  CostPerArea;                            ! Material Cost Units

OS:ComponentData,
  {1c204942-faf2-4a0a-8dec-34ae67c2815a}, ! Handle
  Component Data 1,                       ! Name
  {ff8318ce-8f4b-4a37-8026-64106fcad501}, ! UUID
  {2a7db680-8952-438a-be60-610b3fb66911}, ! Version UUID
  1363981011,                             ! Creation Timestamp
  1363981011,                             ! Version Timestamp
  {87f88db4-fb0e-49f2-9c04-ef51b9654dd8}, ! Name of Object 1
  {00d1a8fc-9bdc-4f12-a8c3-00eb19d63210}, ! Name of Object 2
  {0ecc07f0-1925-4ac6-aa18-947304dafcc3}; ! Name of Object 3

