
OS:Version,
  {ec6616d1-1700-4bfa-873d-5c6275a705e5}, ! Handle
  0.9.3;                                  ! Version Identifier

OS:Construction,
  {9b83de4a-ed6d-49b1-bccb-29c8658dbde7}, ! Handle
  90.1 Windows Window Fixed 2524 Vnl-ClrMpr-Std-ClrPye, ! Name
  ,                                       ! Surface Rendering Name
  {76ea5308-69a1-49fb-85db-c71fab1b8b77}; ! Layer 1

OS:WindowMaterial:Glazing,
  {76ea5308-69a1-49fb-85db-c71fab1b8b77}, ! Handle
  Theoretical Glass [368],                ! Name
  SpectralAverage,                        ! Optical Data Type
  ,                                       ! Window Glass Spectral Data Set Name
  0.003,                                  ! Thickness {m}
  0.395248,                               ! Solar Transmittance at Normal Incidence
  0.554752,                               ! Front Side Solar Reflectance at Normal Incidence
  0.554752,                               ! Back Side Solar Reflectance at Normal Incidence
  0.390045,                               ! Visible Transmittance at Normal Incidence
  0.559955,                               ! Front Side Visible Reflectance at Normal Incidence
  0.559955,                               ! Back Side Visible Reflectance at Normal Incidence
  0,                                      ! Infrared Transmittance at Normal Incidence
  0.9,                                    ! Front Side Infrared Hemispherical Emissivity
  0.9,                                    ! Back Side Infrared Hemispherical Emissivity
  0.0103546;                              ! Conductivity {W/m-K}

OS:ComponentCost:LineItem,
  {c4b65ebc-092c-439f-b7a1-474a6d2ef69c}, ! Handle
  90.1 Windows Window Fixed 2524 Vnl-ClrMpr-Std-ClrPye, ! Name
  ,                                       ! Type
  Construction,                           ! Line Item Type
  90.1 Windows Window Fixed 2524 Vnl-ClrMpr-Std-ClrPye, ! Item Name
  ,                                       ! Object End Use Key
  ,                                       ! Quantity {dimensionless}
  0,                                      ! Material Cost {$}
  CostPerArea;                            ! Material Cost Units

