
OS:Version,
  {c0768dd3-b053-4b7b-ae4e-e13fcb84cfcd}, ! Handle
  0.9.3;                                  ! Version Identifier

OS:Material,
  {3e062bc8-09c7-4136-b45d-41644865d95e}, ! Handle
  Roof Insulation [1],                    ! Name
  MediumRough,                            ! Roughness
  0.123533,                               ! Thickness {m}
  0.049,                                  ! Conductivity {W/m-K}
  265,                                    ! Density {kg/m3}
  836.8,                                  ! Specific Heat {J/kg-K}
  0.9,                                    ! Thermal Absorptance
  0.7,                                    ! Solar Absorptance
  0.7;                                    ! Visible Absorptance

OS:Construction,
  {d9f44274-10c8-4a24-9f2b-cb2f64042e66}, ! Handle
  90.1-2004 Nonres 5B Roof Metal Building, ! Name
  ,                                       ! Surface Rendering Name
  {54db0a6c-f350-4cef-943a-610145529e9a}, ! Layer 1
  {3e062bc8-09c7-4136-b45d-41644865d95e}; ! Layer 2

OS:Material,
  {54db0a6c-f350-4cef-943a-610145529e9a}, ! Handle
  Metal Roofing,                          ! Name
  MediumSmooth,                           ! Roughness
  0.001524,                               ! Thickness {m}
  45.006,                                 ! Conductivity {W/m-K}
  7680,                                   ! Density {kg/m3}
  418.4,                                  ! Specific Heat {J/kg-K}
  0.9,                                    ! Thermal Absorptance
  0.7,                                    ! Solar Absorptance
  0.3;                                    ! Visible Absorptance

OS:ComponentCost:LineItem,
  {fdb21624-156f-412f-ae66-de36b5884983}, ! Handle
  90.1-2004 Nonres 5B Roof Metal Building, ! Name
  ,                                       ! Type
  Construction,                           ! Line Item Type
  90.1-2004 Nonres 5B Roof Metal Building, ! Item Name
  ,                                       ! Object End Use Key
  ,                                       ! Quantity {dimensionless}
  38.206,                                 ! Material Cost {$}
  CostPerArea;                            ! Material Cost Units

