
! 
OS:Version,
  {8503bb35-3288-4176-9c41-752f3d976c4b}, !- Handle
  1.13.0;                                 !- Version Identifier


! 
OS:Material,
  {9f46400c-70d9-4e39-a522-7dec1e990478}, !- Handle
  Aislamiento: SATE
WEBER: weber.therm placa EPS grafito 60 (0.060 m)
R: 1.9 m2K/W,                             !- Name
  MediumRough,                                 !- Roughness
  0.06,                                    !- Thickness {m}
  0.032,                                    !- Conductivity {W/m-K}
  15.0,                                    !- Density {kg/m3}
  800.0,                                    !- Specific Heat {J/kg-K}
  0.9,                                    !- Thermal Absorptance
  0.6,                                    !- Solar Absorptance
  0.6;                                    !- Visible Absorptance

