
OS:Version,
  {86fcbd55-e90c-4f7d-941c-ec61561faa98}, ! Handle
  0.9.3;                                  ! Version Identifier

OS:ComponentCost:LineItem,
  {9d5b0737-2209-4cc1-ae87-1977ede42b89}, ! Handle
  90.1-1999 Res B4 Int Wall,              ! Name
  ,                                       ! Type
  Construction,                           ! Line Item Type
  90.1-1999 Res B4 Int Wall,              ! Item Name
  ,                                       ! Object End Use Key
  ,                                       ! Quantity {dimensionless}
  0,                                      ! Material Cost {$}
  CostPerArea;                            ! Material Cost Units

OS:Construction,
  {be52ec8f-1818-4e85-a9a7-44a5fd3b965f}, ! Handle
  90.1-1999 Res B4 Int Wall,              ! Name
  ,                                       ! Surface Rendering Name
  {784420b8-ee01-4ee0-9662-3306ba3d69f9}, ! Layer 1
  {784420b8-ee01-4ee0-9662-3306ba3d69f9}; ! Layer 2

OS:Material,
  {784420b8-ee01-4ee0-9662-3306ba3d69f9}, ! Handle
  GP01 1/2 GYPSUM,                        ! Name
  Smooth,                                 ! Roughness
  0.01271,                                ! Thickness {m}
  0.16,                                   ! Conductivity {W/m-K}
  800,                                    ! Density {kg/m3}
  1090,                                   ! Specific Heat {J/kg-K}
  0.9,                                    ! Thermal Absorptance
  0.7,                                    ! Solar Absorptance
  0.5;                                    ! Visible Absorptance

OS:Material,
  {518e1540-5abd-4db0-86cd-a0384d30092f}, ! Handle
  GP01 1/2 GYPSUM 1,                      ! Name
  Smooth,                                 ! Roughness
  0.01271,                                ! Thickness {m}
  0.16,                                   ! Conductivity {W/m-K}
  800,                                    ! Density {kg/m3}
  1090,                                   ! Specific Heat {J/kg-K}
  0.9,                                    ! Thermal Absorptance
  0.7,                                    ! Solar Absorptance
  0.5;                                    ! Visible Absorptance

