
OS:Version,
  {9d5d0909-cdfa-4205-a78a-153d5616fe02}, ! Handle
  0.9.3;                                  ! Version Identifier

OS:Construction,
  {0151cded-5b80-4302-8768-f1aa39a3689b}, ! Handle
  90.1-2007 Res 4B Ext Slab Unheated - 8in Slab with Carpet, ! Name
  ,                                       ! Surface Rendering Name
  {83507e74-9a7b-4358-835b-6720405ba643}, ! Layer 1
  {4de89733-23d4-4ec9-bfa0-d309336d219b}; ! Layer 2

OS:Material,
  {83507e74-9a7b-4358-835b-6720405ba643}, ! Handle
  MAT-CC05 8 HW CONCRETE,                 ! Name
  Rough,                                  ! Roughness
  0.20321,                                ! Thickness {m}
  1.311,                                  ! Conductivity {W/m-K}
  2240,                                   ! Density {kg/m3}
  836.8,                                  ! Specific Heat {J/kg-K}
  0.9,                                    ! Thermal Absorptance
  0.7,                                    ! Solar Absorptance
  0.7;                                    ! Visible Absorptance

OS:Material:NoMass,
  {4de89733-23d4-4ec9-bfa0-d309336d219b}, ! Handle
  CP02 CARPET PAD,                        ! Name
  VeryRough,                              ! Roughness
  0.21648,                                ! Thermal Resistance {m2-K/W}
  0.9,                                    ! Thermal Absorptance
  0.7,                                    ! Solar Absorptance
  0.8;                                    ! Visible Absorptance

OS:ComponentCost:LineItem,
  {9790d92e-ab69-47e2-905f-76a3a933fe05}, ! Handle
  90.1-2007 Res 4B Ext Slab Unheated - 8in Slab with Carpet, ! Name
  ,                                       ! Type
  Construction,                           ! Line Item Type
  90.1-2007 Res 4B Ext Slab Unheated - 8in Slab with Carpet, ! Item Name
  ,                                       ! Object End Use Key
  ,                                       ! Quantity {dimensionless}
  45.52,                                  ! Material Cost {$}
  CostPerArea;                            ! Material Cost Units

