
OS:Version,
  {37adc7f0-c4bf-4789-8add-b9c88493fd59}, ! Handle
  0.9.3;                                  ! Version Identifier

OS:Construction,
  {b29bd3d4-0455-42de-a81d-3ae1fc6ade4b}, ! Handle
  90.1-2001 Res B19 Int Wall,             ! Name
  ,                                       ! Surface Rendering Name
  {e19b1352-5866-4588-a8f6-5329b348d785}, ! Layer 1
  {e19b1352-5866-4588-a8f6-5329b348d785}; ! Layer 2

OS:Material,
  {e19b1352-5866-4588-a8f6-5329b348d785}, ! Handle
  GP01 1/2 GYPSUM,                        ! Name
  Smooth,                                 ! Roughness
  0.01271,                                ! Thickness {m}
  0.16,                                   ! Conductivity {W/m-K}
  800,                                    ! Density {kg/m3}
  1090,                                   ! Specific Heat {J/kg-K}
  0.9,                                    ! Thermal Absorptance
  0.7,                                    ! Solar Absorptance
  0.5;                                    ! Visible Absorptance

OS:ComponentCost:LineItem,
  {b17d9f7e-f206-49d1-846e-36d65b5498f8}, ! Handle
  90.1-2001 Res B19 Int Wall,             ! Name
  ,                                       ! Type
  Construction,                           ! Line Item Type
  90.1-2001 Res B19 Int Wall,             ! Item Name
  ,                                       ! Object End Use Key
  ,                                       ! Quantity {dimensionless}
  0,                                      ! Material Cost {$}
  CostPerArea;                            ! Material Cost Units

OS:Material,
  {8d9d4df4-044d-4386-808e-48fff32f23df}, ! Handle
  GP01 1/2 GYPSUM 1,                      ! Name
  Smooth,                                 ! Roughness
  0.01271,                                ! Thickness {m}
  0.16,                                   ! Conductivity {W/m-K}
  800,                                    ! Density {kg/m3}
  1090,                                   ! Specific Heat {J/kg-K}
  0.9,                                    ! Thermal Absorptance
  0.7,                                    ! Solar Absorptance
  0.5;                                    ! Visible Absorptance

