
OS:Version,
  {1b714aec-f9a4-4007-9766-2564d66c2eea}, ! Handle
  0.9.3;                                  ! Version Identifier

OS:ComponentCost:LineItem,
  {833e3cbb-be0a-4877-8d04-73f8b5f70194}, ! Handle
  90.1-2001 Res B4 Roof Metal Building,   ! Name
  ,                                       ! Type
  Construction,                           ! Line Item Type
  90.1-2001 Res B4 Roof Metal Building,   ! Item Name
  ,                                       ! Object End Use Key
  ,                                       ! Quantity {dimensionless}
  38.206,                                 ! Material Cost {$}
  CostPerArea;                            ! Material Cost Units

OS:Material,
  {5368e804-c71d-4c40-b87a-36a2110f96d0}, ! Handle
  Roof Insulation [1],                    ! Name
  MediumRough,                            ! Roughness
  0.123533,                               ! Thickness {m}
  0.049,                                  ! Conductivity {W/m-K}
  265,                                    ! Density {kg/m3}
  836.8,                                  ! Specific Heat {J/kg-K}
  0.9,                                    ! Thermal Absorptance
  0.7,                                    ! Solar Absorptance
  0.7;                                    ! Visible Absorptance

OS:Material,
  {b6d1b2f4-18a8-4d6a-9a90-1fb179ffd12b}, ! Handle
  Metal Roofing,                          ! Name
  MediumSmooth,                           ! Roughness
  0.001524,                               ! Thickness {m}
  45.006,                                 ! Conductivity {W/m-K}
  7680,                                   ! Density {kg/m3}
  418.4,                                  ! Specific Heat {J/kg-K}
  0.9,                                    ! Thermal Absorptance
  0.7,                                    ! Solar Absorptance
  0.3;                                    ! Visible Absorptance

OS:Construction,
  {24e05680-ab02-465f-a577-2e8a33c2cb33}, ! Handle
  90.1-2001 Res B4 Roof Metal Building,   ! Name
  ,                                       ! Surface Rendering Name
  {b6d1b2f4-18a8-4d6a-9a90-1fb179ffd12b}, ! Layer 1
  {5368e804-c71d-4c40-b87a-36a2110f96d0}; ! Layer 2

