
OS:Version,
  {4a32278b-ecf7-44a3-acde-11f5bf118bc6}, ! Handle
  0.9.3;                                  ! Version Identifier

OS:Material,
  {58411e6a-ca7b-4bab-9113-d0f3c940ea79}, ! Handle
  Roof Insulation,                        ! Name
  MediumRough,                            ! Roughness
  0.124958,                               ! Thickness {m}
  0.049,                                  ! Conductivity {W/m-K}
  265,                                    ! Density {kg/m3}
  836.8,                                  ! Specific Heat {J/kg-K}
  0.9,                                    ! Thermal Absorptance
  0.7,                                    ! Solar Absorptance
  0.7;                                    ! Visible Absorptance

OS:Material,
  {253afde3-510d-4481-8e32-86fe30f2f8c1}, ! Handle
  Roof Membrane,                          ! Name
  VeryRough,                              ! Roughness
  0.0095,                                 ! Thickness {m}
  0.16,                                   ! Conductivity {W/m-K}
  1121.29,                                ! Density {kg/m3}
  1460,                                   ! Specific Heat {J/kg-K}
  0.9,                                    ! Thermal Absorptance
  0.7,                                    ! Solar Absorptance
  0.7;                                    ! Visible Absorptance

OS:ComponentCost:LineItem,
  {812c24ca-0e01-4910-adba-881b56dd42b2}, ! Handle
  AEDG K12 Nonres 3C Roof IEAD,           ! Name
  ,                                       ! Type
  Construction,                           ! Line Item Type
  AEDG K12 Nonres 3C Roof IEAD,           ! Item Name
  ,                                       ! Object End Use Key
  ,                                       ! Quantity {dimensionless}
  98.49,                                  ! Material Cost {$}
  CostPerArea;                            ! Material Cost Units

OS:Construction,
  {32bf61cb-64f2-48fc-b2a2-1646eb239201}, ! Handle
  AEDG K12 Nonres 3C Roof IEAD,           ! Name
  ,                                       ! Surface Rendering Name
  {253afde3-510d-4481-8e32-86fe30f2f8c1}, ! Layer 1
  {58411e6a-ca7b-4bab-9113-d0f3c940ea79}, ! Layer 2
  {6b1fb1b8-eedd-47d7-a737-d444e52ca8b4}; ! Layer 3

OS:Material,
  {6b1fb1b8-eedd-47d7-a737-d444e52ca8b4}, ! Handle
  Metal Decking,                          ! Name
  MediumSmooth,                           ! Roughness
  0.001524,                               ! Thickness {m}
  45.006,                                 ! Conductivity {W/m-K}
  7680,                                   ! Density {kg/m3}
  418.4,                                  ! Specific Heat {J/kg-K}
  0.9,                                    ! Thermal Absorptance
  0.7,                                    ! Solar Absorptance
  0.3;                                    ! Visible Absorptance

