
OS:Version,
  {0e8fbeaa-65b0-4d28-abf1-94fa33c90e1a}, ! Handle
  0.9.3;                                  ! Version Identifier

OS:Construction,
  {a6a13c36-2047-4b3d-8c7d-9dc8e06c0f73}, ! Handle
  90.1-2007 Res 1A Window Nonmetal framing, ! Name
  ,                                       ! Surface Rendering Name
  {43d21d38-4eb8-4331-b3f5-32b5824acc45}; ! Layer 1

OS:WindowMaterial:Glazing,
  {43d21d38-4eb8-4331-b3f5-32b5824acc45}, ! Handle
  Theoretical Glass [167],                ! Name
  SpectralAverage,                        ! Optical Data Type
  ,                                       ! Window Glass Spectral Data Set Name
  0.003,                                  ! Thickness {m}
  0.237362,                               ! Solar Transmittance at Normal Incidence
  0.712638,                               ! Front Side Solar Reflectance at Normal Incidence
  0.712638,                               ! Back Side Solar Reflectance at Normal Incidence
  0.251212,                               ! Visible Transmittance at Normal Incidence
  0.698788,                               ! Front Side Visible Reflectance at Normal Incidence
  0.698788,                               ! Back Side Visible Reflectance at Normal Incidence
  0,                                      ! Infrared Transmittance at Normal Incidence
  0.985,                                  ! Front Side Infrared Hemispherical Emissivity
  0.985,                                  ! Back Side Infrared Hemispherical Emissivity
  2.10728;                                ! Conductivity {W/m-K}

OS:ComponentCost:LineItem,
  {9dd916b1-d1d8-4f94-95c4-ba2e0a234919}, ! Handle
  90.1-2007 Res 1A Window Nonmetal framing, ! Name
  ,                                       ! Type
  Construction,                           ! Line Item Type
  90.1-2007 Res 1A Window Nonmetal framing, ! Item Name
  ,                                       ! Object End Use Key
  ,                                       ! Quantity {dimensionless}
  534.616,                                ! Material Cost {$}
  CostPerArea;                            ! Material Cost Units

OS:ComponentData,
  {df4ef269-0480-461a-bb01-7f13d3a143b2}, ! Handle
  Component Data 1,                       ! Name
  {6d6c5aa9-83e8-442b-9092-05fa14c10f5a}, ! UUID
  {8abd7993-1e2b-4447-958a-7290a5b52107}, ! Version UUID
  1363981835,                             ! Creation Timestamp
  1363981835,                             ! Version Timestamp
  {a6a13c36-2047-4b3d-8c7d-9dc8e06c0f73}, ! Name of Object 1
  {43d21d38-4eb8-4331-b3f5-32b5824acc45}, ! Name of Object 2
  {9dd916b1-d1d8-4f94-95c4-ba2e0a234919}; ! Name of Object 3

