
OS:Version,
  {6b601dfc-7193-4825-94b0-15b3ac7342f3}, ! Handle
  0.9.3;                                  ! Version Identifier

OS:Material,
  {1199e3a5-19a8-4078-bbd7-f17c0bec0b93}, ! Handle
  Metal Roofing,                          ! Name
  MediumSmooth,                           ! Roughness
  0.001524,                               ! Thickness {m}
  45.006,                                 ! Conductivity {W/m-K}
  7680,                                   ! Density {kg/m3}
  418.4,                                  ! Specific Heat {J/kg-K}
  0.9,                                    ! Thermal Absorptance
  0.7,                                    ! Solar Absorptance
  0.3;                                    ! Visible Absorptance

OS:Construction,
  {ab6e2653-563e-4755-abc8-9a209be4b031}, ! Handle
  90.1-2001 Res B23 Roof Metal Building,  ! Name
  ,                                       ! Surface Rendering Name
  {1199e3a5-19a8-4078-bbd7-f17c0bec0b93}, ! Layer 1
  {5ad07359-767e-4cb1-83a0-134ac25d5452}; ! Layer 2

OS:Material,
  {5ad07359-767e-4cb1-83a0-134ac25d5452}, ! Handle
  Roof Insulation [6],                    ! Name
  MediumRough,                            ! Roughness
  0.147675,                               ! Thickness {m}
  0.049,                                  ! Conductivity {W/m-K}
  265,                                    ! Density {kg/m3}
  836.8,                                  ! Specific Heat {J/kg-K}
  0.9,                                    ! Thermal Absorptance
  0.7,                                    ! Solar Absorptance
  0.7;                                    ! Visible Absorptance

OS:ComponentCost:LineItem,
  {888a7bdd-0eb1-406e-a73c-b3eccc642eff}, ! Handle
  90.1-2001 Res B23 Roof Metal Building,  ! Name
  ,                                       ! Type
  Construction,                           ! Line Item Type
  90.1-2001 Res B23 Roof Metal Building,  ! Item Name
  ,                                       ! Object End Use Key
  ,                                       ! Quantity {dimensionless}
  40.571,                                 ! Material Cost {$}
  CostPerArea;                            ! Material Cost Units

