
OS:Version,
  {efde79e1-d79e-4571-8a2d-317baa63ad8b}, ! Handle
  0.9.3;                                  ! Version Identifier

OS:Material,
  {78fc76b3-048e-477a-bce2-254b4f563d1b}, ! Handle
  MAT-CC05 4 HW CONCRETE,                 ! Name
  Rough,                                  ! Roughness
  0.1016,                                 ! Thickness {m}
  1.311,                                  ! Conductivity {W/m-K}
  2240,                                   ! Density {kg/m3}
  836.8,                                  ! Specific Heat {J/kg-K}
  0.9,                                    ! Thermal Absorptance
  0.7,                                    ! Solar Absorptance
  0.7;                                    ! Visible Absorptance

OS:Construction,
  {394636e3-ce5d-4070-ae5a-8301310a84a4}, ! Handle
  90.1-2001 Res B3 Ext Slab Unheated - 4in Slab without Carpet, ! Name
  ,                                       ! Surface Rendering Name
  {78fc76b3-048e-477a-bce2-254b4f563d1b}; ! Layer 1

OS:ComponentCost:LineItem,
  {549d6b92-9b00-4261-8e0c-2ae8f3f129ba}, ! Handle
  90.1-2001 Res B3 Ext Slab Unheated - 4in Slab without Carpet, ! Name
  ,                                       ! Type
  Construction,                           ! Line Item Type
  90.1-2001 Res B3 Ext Slab Unheated - 4in Slab without Carpet, ! Item Name
  ,                                       ! Object End Use Key
  ,                                       ! Quantity {dimensionless}
  45.52,                                  ! Material Cost {$}
  CostPerArea;                            ! Material Cost Units

