
OS:Version,
  {0d0b24c0-66df-42a4-bbb5-6004a75527da}, ! Handle
  0.9.3;                                  ! Version Identifier

OS:Material,
  {330f24ec-398e-4ed8-9406-ff5a7b4e2991}, ! Handle
  Metal Decking,                          ! Name
  MediumSmooth,                           ! Roughness
  0.001524,                               ! Thickness {m}
  45.006,                                 ! Conductivity {W/m-K}
  7680,                                   ! Density {kg/m3}
  418.4,                                  ! Specific Heat {J/kg-K}
  0.9,                                    ! Thermal Absorptance
  0.7,                                    ! Solar Absorptance
  0.3;                                    ! Visible Absorptance

OS:Construction,
  {3fc2264c-5b36-4413-b130-0e5e4af47f9a}, ! Handle
  189.1-2009 Res 5B Roof IEAD,            ! Name
  ,                                       ! Surface Rendering Name
  {e450e794-ba51-4c1c-99f2-a3949335e7f8}, ! Layer 1
  {58cd93be-9f23-45ed-b484-00ada2ddbf7e}, ! Layer 2
  {330f24ec-398e-4ed8-9406-ff5a7b4e2991}; ! Layer 3

OS:Material,
  {e450e794-ba51-4c1c-99f2-a3949335e7f8}, ! Handle
  Roof Membrane,                          ! Name
  VeryRough,                              ! Roughness
  0.0095,                                 ! Thickness {m}
  0.16,                                   ! Conductivity {W/m-K}
  1121.29,                                ! Density {kg/m3}
  1460,                                   ! Specific Heat {J/kg-K}
  0.9,                                    ! Thermal Absorptance
  0.7,                                    ! Solar Absorptance
  0.7;                                    ! Visible Absorptance

OS:Material,
  {58cd93be-9f23-45ed-b484-00ada2ddbf7e}, ! Handle
  Roof Insulation [21],                   ! Name
  MediumRough,                            ! Roughness
  0.210538,                               ! Thickness {m}
  0.049,                                  ! Conductivity {W/m-K}
  265,                                    ! Density {kg/m3}
  836.8,                                  ! Specific Heat {J/kg-K}
  0.9,                                    ! Thermal Absorptance
  0.7,                                    ! Solar Absorptance
  0.7;                                    ! Visible Absorptance

OS:ComponentCost:LineItem,
  {b617c3c6-8f8f-48ba-af46-d15e667185ab}, ! Handle
  189.1-2009 Res 5B Roof IEAD,            ! Name
  ,                                       ! Type
  Construction,                           ! Line Item Type
  189.1-2009 Res 5B Roof IEAD,            ! Item Name
  ,                                       ! Object End Use Key
  ,                                       ! Quantity {dimensionless}
  56.652,                                 ! Material Cost {$}
  CostPerArea;                            ! Material Cost Units

