
OS:Version,
  {6516b64a-0911-4f5d-9405-fd8d44ce8eba}, ! Handle
  0.9.3;                                  ! Version Identifier

OS:Construction,
  {c373a9f5-873d-4279-a694-3ff8d6885067}, ! Handle
  189.1-2009 Res 5B Roof IEAD,            ! Name
  ,                                       ! Surface Rendering Name
  {cc29e538-26c3-431b-806c-c78a4b3974a7}, ! Layer 1
  {e8b36a11-0c2e-4b20-bde0-117469623ea8}, ! Layer 2
  {af999266-d8bb-4f9d-a539-216ce4dfde9c}; ! Layer 3

OS:Material,
  {cc29e538-26c3-431b-806c-c78a4b3974a7}, ! Handle
  Roof Membrane,                          ! Name
  VeryRough,                              ! Roughness
  0.0095,                                 ! Thickness {m}
  0.16,                                   ! Conductivity {W/m-K}
  1121.29,                                ! Density {kg/m3}
  1460,                                   ! Specific Heat {J/kg-K}
  0.9,                                    ! Thermal Absorptance
  0.7,                                    ! Solar Absorptance
  0.7;                                    ! Visible Absorptance

OS:Material,
  {e8b36a11-0c2e-4b20-bde0-117469623ea8}, ! Handle
  Roof Insulation [21],                   ! Name
  MediumRough,                            ! Roughness
  0.210538,                               ! Thickness {m}
  0.049,                                  ! Conductivity {W/m-K}
  265,                                    ! Density {kg/m3}
  836.8,                                  ! Specific Heat {J/kg-K}
  0.9,                                    ! Thermal Absorptance
  0.7,                                    ! Solar Absorptance
  0.7;                                    ! Visible Absorptance

OS:Material,
  {af999266-d8bb-4f9d-a539-216ce4dfde9c}, ! Handle
  Metal Decking,                          ! Name
  MediumSmooth,                           ! Roughness
  0.001524,                               ! Thickness {m}
  45.006,                                 ! Conductivity {W/m-K}
  7680,                                   ! Density {kg/m3}
  418.4,                                  ! Specific Heat {J/kg-K}
  0.9,                                    ! Thermal Absorptance
  0.7,                                    ! Solar Absorptance
  0.3;                                    ! Visible Absorptance

OS:ComponentCost:LineItem,
  {7fc5bf5c-9899-44bc-81c5-ec41153ec6b4}, ! Handle
  189.1-2009 Res 5B Roof IEAD,            ! Name
  ,                                       ! Type
  Construction,                           ! Line Item Type
  189.1-2009 Res 5B Roof IEAD,            ! Item Name
  ,                                       ! Object End Use Key
  ,                                       ! Quantity {dimensionless}
  56.652,                                 ! Material Cost {$}
  CostPerArea;                            ! Material Cost Units

OS:ComponentData,
  {f4bb4edb-fbbf-42ee-9b79-57f2e316d848}, ! Handle
  Component Data 1,                       ! Name
  {6ec76e68-6cf8-4668-8c0a-413eba8700b1}, ! UUID
  {d02cba13-97f4-4ead-9131-bb2b593ae995}, ! Version UUID
  1363980975,                             ! Creation Timestamp
  1363980975,                             ! Version Timestamp
  {c373a9f5-873d-4279-a694-3ff8d6885067}, ! Name of Object 1
  {cc29e538-26c3-431b-806c-c78a4b3974a7}, ! Name of Object 2
  {e8b36a11-0c2e-4b20-bde0-117469623ea8}, ! Name of Object 3
  {af999266-d8bb-4f9d-a539-216ce4dfde9c}, ! Name of Object 4
  {7fc5bf5c-9899-44bc-81c5-ec41153ec6b4}; ! Name of Object 5

