
OS:Version,
  {d793eb95-fdab-4177-bc6a-71234adeb81f}, ! Handle
  0.9.3;                                  ! Version Identifier

OS:Material,
  {7d7ad62e-4835-41f9-9584-e27b843297bd}, ! Handle
  1/2IN Gypsum,                           ! Name
  Smooth,                                 ! Roughness
  0.01271,                                ! Thickness {m}
  0.16,                                   ! Conductivity {W/m-K}
  784.9,                                  ! Density {kg/m3}
  830,                                    ! Specific Heat {J/kg-K}
  0.9,                                    ! Thermal Absorptance
  0.92,                                   ! Solar Absorptance
  0.92;                                   ! Visible Absorptance

OS:Material,
  {48892a17-d01e-4b34-9531-cceea71c747d}, ! Handle
  1IN Stucco,                             ! Name
  Smooth,                                 ! Roughness
  0.0253,                                 ! Thickness {m}
  0.6918,                                 ! Conductivity {W/m-K}
  1858,                                   ! Density {kg/m3}
  837,                                    ! Specific Heat {J/kg-K}
  0.9,                                    ! Thermal Absorptance
  0.92,                                   ! Solar Absorptance
  0.92;                                   ! Visible Absorptance

OS:Material,
  {41bfac40-134a-479b-b735-fef1a534d2c6}, ! Handle
  Wall Insulation [4],                    ! Name
  MediumRough,                            ! Roughness
  0.0338606,                              ! Thickness {m}
  0.0432,                                 ! Conductivity {W/m-K}
  91,                                     ! Density {kg/m3}
  837,                                    ! Specific Heat {J/kg-K}
  0.9,                                    ! Thermal Absorptance
  0.5,                                    ! Solar Absorptance
  0.5;                                    ! Visible Absorptance

OS:ComponentCost:LineItem,
  {a4a79642-769b-49df-a1a8-cf0392508b89}, ! Handle
  90.1-1999 Nonres B11 Ext Wall Mass,     ! Name
  ,                                       ! Type
  Construction,                           ! Line Item Type
  90.1-1999 Nonres B11 Ext Wall Mass,     ! Item Name
  ,                                       ! Object End Use Key
  ,                                       ! Quantity {dimensionless}
  58.897,                                 ! Material Cost {$}
  CostPerArea;                            ! Material Cost Units

OS:Construction,
  {02366ef0-5f4d-496c-874f-f2168d72123d}, ! Handle
  90.1-1999 Nonres B11 Ext Wall Mass,     ! Name
  ,                                       ! Surface Rendering Name
  {48892a17-d01e-4b34-9531-cceea71c747d}, ! Layer 1
  {d715aa1e-09f4-47cc-b935-69ff4affbb77}, ! Layer 2
  {41bfac40-134a-479b-b735-fef1a534d2c6}, ! Layer 3
  {7d7ad62e-4835-41f9-9584-e27b843297bd}; ! Layer 4

OS:Material,
  {d715aa1e-09f4-47cc-b935-69ff4affbb77}, ! Handle
  8IN Concrete HW,                        ! Name
  MediumRough,                            ! Roughness
  0.2033,                                 ! Thickness {m}
  1.7296,                                 ! Conductivity {W/m-K}
  2243,                                   ! Density {kg/m3}
  837,                                    ! Specific Heat {J/kg-K}
  0.9,                                    ! Thermal Absorptance
  0.65,                                   ! Solar Absorptance
  0.65;                                   ! Visible Absorptance

