
OS:Version,
  {ae18666c-38dc-4976-b356-6b7288cabe44}, ! Handle
  0.9.3;                                  ! Version Identifier

OS:Material,
  {a10572dd-3592-4ce4-b43b-8b87c9359fdf}, ! Handle
  1IN Stucco,                             ! Name
  Smooth,                                 ! Roughness
  0.0253,                                 ! Thickness {m}
  0.6918,                                 ! Conductivity {W/m-K}
  1858,                                   ! Density {kg/m3}
  837,                                    ! Specific Heat {J/kg-K}
  0.9,                                    ! Thermal Absorptance
  0.92,                                   ! Solar Absorptance
  0.92;                                   ! Visible Absorptance

OS:Construction,
  {98f6651d-c78f-4311-bbb4-99da6dfa155d}, ! Handle
  90.1-2001 Nonres B26 Ext Wall Mass,     ! Name
  ,                                       ! Surface Rendering Name
  {a10572dd-3592-4ce4-b43b-8b87c9359fdf}, ! Layer 1
  {4e15a185-d7fe-4bc4-a07a-7bb44cf289a9}, ! Layer 2
  {1f19ceff-40b7-4297-af70-d61f8ead2dc0}, ! Layer 3
  {043c2dc7-5a08-40da-9ea3-ed513d1cf820}; ! Layer 4

OS:Material,
  {4e15a185-d7fe-4bc4-a07a-7bb44cf289a9}, ! Handle
  8IN Concrete HW,                        ! Name
  MediumRough,                            ! Roughness
  0.2033,                                 ! Thickness {m}
  1.7296,                                 ! Conductivity {W/m-K}
  2243,                                   ! Density {kg/m3}
  837,                                    ! Specific Heat {J/kg-K}
  0.9,                                    ! Thermal Absorptance
  0.65,                                   ! Solar Absorptance
  0.65;                                   ! Visible Absorptance

OS:Material,
  {1f19ceff-40b7-4297-af70-d61f8ead2dc0}, ! Handle
  Wall Insulation [14],                   ! Name
  MediumRough,                            ! Roughness
  0.0905233,                              ! Thickness {m}
  0.0432,                                 ! Conductivity {W/m-K}
  91,                                     ! Density {kg/m3}
  837,                                    ! Specific Heat {J/kg-K}
  0.9,                                    ! Thermal Absorptance
  0.5,                                    ! Solar Absorptance
  0.5;                                    ! Visible Absorptance

OS:Material,
  {043c2dc7-5a08-40da-9ea3-ed513d1cf820}, ! Handle
  1/2IN Gypsum,                           ! Name
  Smooth,                                 ! Roughness
  0.01271,                                ! Thickness {m}
  0.16,                                   ! Conductivity {W/m-K}
  784.9,                                  ! Density {kg/m3}
  830,                                    ! Specific Heat {J/kg-K}
  0.9,                                    ! Thermal Absorptance
  0.92,                                   ! Solar Absorptance
  0.92;                                   ! Visible Absorptance

OS:ComponentCost:LineItem,
  {cbf7bcd4-1492-4498-b7e9-955a20912443}, ! Handle
  90.1-2001 Nonres B26 Ext Wall Mass,     ! Name
  ,                                       ! Type
  Construction,                           ! Line Item Type
  90.1-2001 Nonres B26 Ext Wall Mass,     ! Item Name
  ,                                       ! Object End Use Key
  ,                                       ! Quantity {dimensionless}
  70.253,                                 ! Material Cost {$}
  CostPerArea;                            ! Material Cost Units

