
OS:Version,
  {b66702df-f30a-4a2b-a14c-5847003cfdf3}, ! Handle
  0.9.3;                                  ! Version Identifier

OS:ComponentCost:LineItem,
  {558369f7-5ab2-40b7-981b-cba5d802fef7}, ! Handle
  90.1-2007 Res 5B Window Metal framing curtainwall-storefront, ! Name
  ,                                       ! Type
  Construction,                           ! Line Item Type
  90.1-2007 Res 5B Window Metal framing curtainwall-storefront, ! Item Name
  ,                                       ! Object End Use Key
  ,                                       ! Quantity {dimensionless}
  512.02,                                 ! Material Cost {$}
  CostPerArea;                            ! Material Cost Units

OS:WindowMaterial:Glazing,
  {82641703-a24c-4770-81f1-cba8103fe81f}, ! Handle
  Theoretical Glass [184],                ! Name
  SpectralAverage,                        ! Optical Data Type
  ,                                       ! Window Glass Spectral Data Set Name
  0.003,                                  ! Thickness {m}
  0.394694,                               ! Solar Transmittance at Normal Incidence
  0.555306,                               ! Front Side Solar Reflectance at Normal Incidence
  0.555306,                               ! Back Side Solar Reflectance at Normal Incidence
  0.507883,                               ! Visible Transmittance at Normal Incidence
  0.442117,                               ! Front Side Visible Reflectance at Normal Incidence
  0.442117,                               ! Back Side Visible Reflectance at Normal Incidence
  0,                                      ! Infrared Transmittance at Normal Incidence
  0.9,                                    ! Front Side Infrared Hemispherical Emissivity
  0.9,                                    ! Back Side Infrared Hemispherical Emissivity
  0.0129994;                              ! Conductivity {W/m-K}

OS:Construction,
  {fa4132dd-0758-4437-bc46-7c25c5768534}, ! Handle
  90.1-2007 Res 5B Window Metal framing curtainwall-storefront, ! Name
  ,                                       ! Surface Rendering Name
  {82641703-a24c-4770-81f1-cba8103fe81f}; ! Layer 1

