
OS:Version,
  {974f2311-0f1c-42e6-8bf8-7ea31af94b13}, ! Handle
  0.9.3;                                  ! Version Identifier

OS:Material,
  {bbbafaab-ec75-4448-a394-20abd196133c}, ! Handle
  MAT-CC05 4 HW CONCRETE,                 ! Name
  Rough,                                  ! Roughness
  0.1016,                                 ! Thickness {m}
  1.311,                                  ! Conductivity {W/m-K}
  2240,                                   ! Density {kg/m3}
  836.8,                                  ! Specific Heat {J/kg-K}
  0.9,                                    ! Thermal Absorptance
  0.7,                                    ! Solar Absorptance
  0.7;                                    ! Visible Absorptance

OS:Construction,
  {208db3ab-facc-494a-8277-c78c3c759dd3}, ! Handle
  90.1-1999 Nonres B8 Ext Slab Unheated - 4in Slab without Carpet, ! Name
  ,                                       ! Surface Rendering Name
  {bbbafaab-ec75-4448-a394-20abd196133c}; ! Layer 1

OS:ComponentCost:LineItem,
  {bf45b215-05c4-4fec-b1e4-bd9338459465}, ! Handle
  90.1-1999 Nonres B8 Ext Slab Unheated - 4in Slab without Carpet, ! Name
  ,                                       ! Type
  Construction,                           ! Line Item Type
  90.1-1999 Nonres B8 Ext Slab Unheated - 4in Slab without Carpet, ! Item Name
  ,                                       ! Object End Use Key
  ,                                       ! Quantity {dimensionless}
  45.52,                                  ! Material Cost {$}
  CostPerArea;                            ! Material Cost Units

