
OS:Version,
  {445e22c3-c043-4dc1-98de-7531d2e49bad}, ! Handle
  0.9.3;                                  ! Version Identifier

OS:ComponentCost:LineItem,
  {e2f6f375-a8f2-4266-a945-ef601e907c4d}, ! Handle
  90.1-2001 Nonres B7 Ext Wall Steel-Framed, ! Name
  ,                                       ! Type
  Construction,                           ! Line Item Type
  90.1-2001 Nonres B7 Ext Wall Steel-Framed, ! Item Name
  ,                                       ! Object End Use Key
  ,                                       ! Quantity {dimensionless}
  87.08,                                  ! Material Cost {$}
  CostPerArea;                            ! Material Cost Units

OS:Material,
  {35b3d5cc-a8ae-4ef0-99bb-6ffb83b4c64b}, ! Handle
  Wall Insulation [1],                    ! Name
  MediumRough,                            ! Roughness
  0.0373223,                              ! Thickness {m}
  0.045,                                  ! Conductivity {W/m-K}
  265,                                    ! Density {kg/m3}
  836.8,                                  ! Specific Heat {J/kg-K}
  0.9,                                    ! Thermal Absorptance
  0.7,                                    ! Solar Absorptance
  0.7;                                    ! Visible Absorptance

OS:Material:NoMass,
  {f03ccc28-112c-40e2-8fc7-1291a11821db}, ! Handle
  MAT-SHEATH,                             ! Name
  Rough,                                  ! Roughness
  0.36256,                                ! Thermal Resistance {m2-K/W}
  0.9,                                    ! Thermal Absorptance
  0.7,                                    ! Solar Absorptance
  0.7;                                    ! Visible Absorptance

OS:Material,
  {8678a8b4-9e38-46e4-9ad0-206b6a0f67d3}, ! Handle
  1/2IN Gypsum,                           ! Name
  Smooth,                                 ! Roughness
  0.01271,                                ! Thickness {m}
  0.16,                                   ! Conductivity {W/m-K}
  784.9,                                  ! Density {kg/m3}
  830,                                    ! Specific Heat {J/kg-K}
  0.9,                                    ! Thermal Absorptance
  0.92,                                   ! Solar Absorptance
  0.92;                                   ! Visible Absorptance

OS:Construction,
  {5c9e61c4-39c7-485e-b0f9-77bc45bf5bd2}, ! Handle
  90.1-2001 Nonres B7 Ext Wall Steel-Framed, ! Name
  ,                                       ! Surface Rendering Name
  {f03ccc28-112c-40e2-8fc7-1291a11821db}, ! Layer 1
  {35b3d5cc-a8ae-4ef0-99bb-6ffb83b4c64b}, ! Layer 2
  {8678a8b4-9e38-46e4-9ad0-206b6a0f67d3}; ! Layer 3

