
OS:Version,
  {8431bf35-4b56-4630-b8a7-221359c9f3ed}, ! Handle
  0.9.3;                                  ! Version Identifier

OS:Material,
  {a62d7b04-5429-4232-8c6a-0f5df0911df8}, ! Handle
  Wall Insulation [1],                    ! Name
  MediumRough,                            ! Roughness
  0.0373223,                              ! Thickness {m}
  0.045,                                  ! Conductivity {W/m-K}
  265,                                    ! Density {kg/m3}
  836.8,                                  ! Specific Heat {J/kg-K}
  0.9,                                    ! Thermal Absorptance
  0.7,                                    ! Solar Absorptance
  0.7;                                    ! Visible Absorptance

OS:Material:NoMass,
  {2335959e-15f4-4b12-bb84-6a2e4c1faefd}, ! Handle
  MAT-SHEATH,                             ! Name
  Rough,                                  ! Roughness
  0.36256,                                ! Thermal Resistance {m2-K/W}
  0.9,                                    ! Thermal Absorptance
  0.7,                                    ! Solar Absorptance
  0.7;                                    ! Visible Absorptance

OS:Construction,
  {37a3eb9e-47a7-4f8f-a9a3-a6200500dbba}, ! Handle
  90.1-2001 Nonres B15 Ext Wall Steel-Framed, ! Name
  ,                                       ! Surface Rendering Name
  {2335959e-15f4-4b12-bb84-6a2e4c1faefd}, ! Layer 1
  {a62d7b04-5429-4232-8c6a-0f5df0911df8}, ! Layer 2
  {92a789d9-8f54-47af-97fe-3f9c1b265747}; ! Layer 3

OS:Material,
  {92a789d9-8f54-47af-97fe-3f9c1b265747}, ! Handle
  1/2IN Gypsum,                           ! Name
  Smooth,                                 ! Roughness
  0.01271,                                ! Thickness {m}
  0.16,                                   ! Conductivity {W/m-K}
  784.9,                                  ! Density {kg/m3}
  830,                                    ! Specific Heat {J/kg-K}
  0.9,                                    ! Thermal Absorptance
  0.92,                                   ! Solar Absorptance
  0.92;                                   ! Visible Absorptance

OS:ComponentCost:LineItem,
  {32edc076-4831-4e62-8c58-e5809a592296}, ! Handle
  90.1-2001 Nonres B15 Ext Wall Steel-Framed, ! Name
  ,                                       ! Type
  Construction,                           ! Line Item Type
  90.1-2001 Nonres B15 Ext Wall Steel-Framed, ! Item Name
  ,                                       ! Object End Use Key
  ,                                       ! Quantity {dimensionless}
  87.08,                                  ! Material Cost {$}
  CostPerArea;                            ! Material Cost Units

