
OS:Version,
  {712972ab-8d82-482b-ae27-ba3b25e53f8a}, !- Handle
  1.1.0;                                  !- Version Identifier

OS:Construction,
  {04b3c106-7788-4dc2-85e3-8c1110bf2715}, !- Handle
  Dbl Ref-D Clr 6mm/6mm Air,              !- Name
  ,                                       !- Surface Rendering Name
  {20f85feb-2b0b-40c3-a59a-494078bcaaf9}, !- Layer 1
  {b26a4679-0f0d-48fb-9825-8907ba2db2a0}, !- Layer 2
  {a20311c7-5aca-4270-9c24-0b18b3f014e8}; !- Layer 3

OS:WindowMaterial:Glazing,
  {20f85feb-2b0b-40c3-a59a-494078bcaaf9}, !- Handle
  REF D CLEAR 6MM,                        !- Name
  SpectralAverage,                        !- Optical Data Type
  ,                                       !- Window Glass Spectral Data Set Name
  0.006,                                  !- Thickness {m}
  0.429,                                  !- Solar Transmittance at Normal Incidence
  0.308,                                  !- Front Side Solar Reflectance at Normal Incidence
  0.379,                                  !- Back Side Solar Reflectance at Normal Incidence
  0.334,                                  !- Visible Transmittance at Normal Incidence
  0.453,                                  !- Front Side Visible Reflectance at Normal Incidence
  0.505,                                  !- Back Side Visible Reflectance at Normal Incidence
  0,                                      !- Infrared Transmittance at Normal Incidence
  0.84,                                   !- Front Side Infrared Hemispherical Emissivity
  0.82,                                   !- Back Side Infrared Hemispherical Emissivity
  0.9;                                    !- Conductivity {W/m-K}

OS:WindowMaterial:Gas,
  {b26a4679-0f0d-48fb-9825-8907ba2db2a0}, !- Handle
  AIR 6MM,                                !- Name
  Air,                                    !- Gas Type
  0.0063;                                 !- Thickness {m}

OS:WindowMaterial:Glazing,
  {a20311c7-5aca-4270-9c24-0b18b3f014e8}, !- Handle
  CLEAR 6MM,                              !- Name
  SpectralAverage,                        !- Optical Data Type
  ,                                       !- Window Glass Spectral Data Set Name
  0.006,                                  !- Thickness {m}
  0.775,                                  !- Solar Transmittance at Normal Incidence
  0.071,                                  !- Front Side Solar Reflectance at Normal Incidence
  0.071,                                  !- Back Side Solar Reflectance at Normal Incidence
  0.881,                                  !- Visible Transmittance at Normal Incidence
  0.08,                                   !- Front Side Visible Reflectance at Normal Incidence
  0.08,                                   !- Back Side Visible Reflectance at Normal Incidence
  0,                                      !- Infrared Transmittance at Normal Incidence
  0.84,                                   !- Front Side Infrared Hemispherical Emissivity
  0.84,                                   !- Back Side Infrared Hemispherical Emissivity
  0.9;                                    !- Conductivity {W/m-K}

