
OS:Version,
  {4f8897dc-c2f3-4d5f-95f6-12081298ad30}, ! Handle
  0.9.3;                                  ! Version Identifier

OS:Material:NoMass,
  {dfb13830-6b2d-4668-8935-ca9ea2dd9f71}, ! Handle
  CP02 CARPET PAD,                        ! Name
  VeryRough,                              ! Roughness
  0.21648,                                ! Thermal Resistance {m2-K/W}
  0.9,                                    ! Thermal Absorptance
  0.7,                                    ! Solar Absorptance
  0.8;                                    ! Visible Absorptance

OS:ComponentCost:LineItem,
  {33584270-31f6-4ffd-be49-378b080d82ff}, ! Handle
  90.1-1999 Res B26 Ext Slab Unheated - 4in Slab with Carpet, ! Name
  ,                                       ! Type
  Construction,                           ! Line Item Type
  90.1-1999 Res B26 Ext Slab Unheated - 4in Slab with Carpet, ! Item Name
  ,                                       ! Object End Use Key
  ,                                       ! Quantity {dimensionless}
  45.52,                                  ! Material Cost {$}
  CostPerArea;                            ! Material Cost Units

OS:Material,
  {50b00425-0b47-4382-9690-4df48090caad}, ! Handle
  MAT-CC05 4 HW CONCRETE,                 ! Name
  Rough,                                  ! Roughness
  0.1016,                                 ! Thickness {m}
  1.311,                                  ! Conductivity {W/m-K}
  2240,                                   ! Density {kg/m3}
  836.8,                                  ! Specific Heat {J/kg-K}
  0.9,                                    ! Thermal Absorptance
  0.7,                                    ! Solar Absorptance
  0.7;                                    ! Visible Absorptance

OS:Construction,
  {4746fc2b-20d9-4121-aeda-50af359a3464}, ! Handle
  90.1-1999 Res B26 Ext Slab Unheated - 4in Slab with Carpet, ! Name
  ,                                       ! Surface Rendering Name
  {50b00425-0b47-4382-9690-4df48090caad}, ! Layer 1
  {dfb13830-6b2d-4668-8935-ca9ea2dd9f71}; ! Layer 2

