
OS:Version,
  {451e62e1-2253-436e-ac6c-85817b29f117}, ! Handle
  0.9.3;                                  ! Version Identifier

OS:ComponentCost:LineItem,
  {c869e907-6be2-4f7d-92fc-fa9d83a4c8e4}, ! Handle
  90.1-2007 Nonres 7A Ext Slab Unheated - 8in Slab without Carpet, ! Name
  ,                                       ! Type
  Construction,                           ! Line Item Type
  90.1-2007 Nonres 7A Ext Slab Unheated - 8in Slab without Carpet, ! Item Name
  ,                                       ! Object End Use Key
  ,                                       ! Quantity {dimensionless}
  45.52,                                  ! Material Cost {$}
  CostPerArea;                            ! Material Cost Units

OS:Construction,
  {03024606-0ec5-4a8e-96e8-54f7bc85a6de}, ! Handle
  90.1-2007 Nonres 7A Ext Slab Unheated - 8in Slab without Carpet, ! Name
  ,                                       ! Surface Rendering Name
  {4ab18549-d90e-45d3-a1ae-d6f3ef5a1661}; ! Layer 1

OS:Material,
  {4ab18549-d90e-45d3-a1ae-d6f3ef5a1661}, ! Handle
  MAT-CC05 8 HW CONCRETE,                 ! Name
  Rough,                                  ! Roughness
  0.20321,                                ! Thickness {m}
  1.311,                                  ! Conductivity {W/m-K}
  2240,                                   ! Density {kg/m3}
  836.8,                                  ! Specific Heat {J/kg-K}
  0.9,                                    ! Thermal Absorptance
  0.7,                                    ! Solar Absorptance
  0.7;                                    ! Visible Absorptance

