
OS:Version,
  {c6acda28-2ed5-4f89-a2e9-028197889ca0}, ! Handle
  0.9.3;                                  ! Version Identifier

OS:ComponentCost:LineItem,
  {6a121848-e1be-41a3-9a40-cc8eefbf3c99}, ! Handle
  90.1-2007 Res 3A Roof Attic and Other,  ! Name
  ,                                       ! Type
  Construction,                           ! Line Item Type
  90.1-2007 Res 3A Roof Attic and Other,  ! Item Name
  ,                                       ! Object End Use Key
  ,                                       ! Quantity {dimensionless}
  34.757,                                 ! Material Cost {$}
  CostPerArea;                            ! Material Cost Units

OS:Material,
  {5938038c-649c-47c9-9daa-6f259f9170c5}, ! Handle
  1/2IN Gypsum,                           ! Name
  Smooth,                                 ! Roughness
  0.01271,                                ! Thickness {m}
  0.16,                                   ! Conductivity {W/m-K}
  784.9,                                  ! Density {kg/m3}
  830,                                    ! Specific Heat {J/kg-K}
  0.9,                                    ! Thermal Absorptance
  0.92,                                   ! Solar Absorptance
  0.92;                                   ! Visible Absorptance

OS:Construction,
  {e72e8947-2af8-4de3-b4d0-afb9845e9334}, ! Handle
  90.1-2007 Res 3A Roof Attic and Other,  ! Name
  ,                                       ! Surface Rendering Name
  {d3b49d67-1a58-4b2a-b748-351422b4b359}, ! Layer 1
  {143314eb-109b-404b-92bf-e20b2a0b85bb}, ! Layer 2
  {3db56d1b-dd7d-4512-becd-284c593104a2}, ! Layer 3
  {5938038c-649c-47c9-9daa-6f259f9170c5}; ! Layer 4

OS:Material,
  {d3b49d67-1a58-4b2a-b748-351422b4b359}, ! Handle
  Wood Shingles,                          ! Name
  VeryRough,                              ! Roughness
  0.0178,                                 ! Thickness {m}
  0.115,                                  ! Conductivity {W/m-K}
  513,                                    ! Density {kg/m3}
  1255,                                   ! Specific Heat {J/kg-K}
  0.9,                                    ! Thermal Absorptance
  0.78,                                   ! Solar Absorptance
  0.78;                                   ! Visible Absorptance

OS:Material,
  {143314eb-109b-404b-92bf-e20b2a0b85bb}, ! Handle
  1IN Wood Decking,                       ! Name
  MediumSmooth,                           ! Roughness
  0.0254,                                 ! Thickness {m}
  0.1211,                                 ! Conductivity {W/m-K}
  593,                                    ! Density {kg/m3}
  2510,                                   ! Specific Heat {J/kg-K}
  0.9,                                    ! Thermal Absorptance
  0.78,                                   ! Solar Absorptance
  0.78;                                   ! Visible Absorptance

OS:Material,
  {3db56d1b-dd7d-4512-becd-284c593104a2}, ! Handle
  Roof Insulation [5],                    ! Name
  MediumRough,                            ! Roughness
  0.286906,                               ! Thickness {m}
  0.049,                                  ! Conductivity {W/m-K}
  265,                                    ! Density {kg/m3}
  836.8,                                  ! Specific Heat {J/kg-K}
  0.9,                                    ! Thermal Absorptance
  0.7,                                    ! Solar Absorptance
  0.7;                                    ! Visible Absorptance

