
OS:Version,
  {932cc6f0-fd45-4cca-b2fc-d8b039e78100}, ! Handle
  0.9.3;                                  ! Version Identifier

OS:Construction,
  {44c05676-6657-4c69-b37a-07c6588b2866}, ! Handle
  90.1-2007 Res 3A Roof Attic and Other,  ! Name
  ,                                       ! Surface Rendering Name
  {c80a5292-e6f1-482f-a883-5c457a947f61}, ! Layer 1
  {454618b1-6cd4-428b-9f13-1feb5b9c5fee}, ! Layer 2
  {c192a520-a581-4a85-81f7-e948aa8bda2f}, ! Layer 3
  {972dfd5d-a76f-407f-8bd1-3ecb659a4803}; ! Layer 4

OS:Material,
  {c80a5292-e6f1-482f-a883-5c457a947f61}, ! Handle
  Wood Shingles,                          ! Name
  VeryRough,                              ! Roughness
  0.0178,                                 ! Thickness {m}
  0.115,                                  ! Conductivity {W/m-K}
  513,                                    ! Density {kg/m3}
  1255,                                   ! Specific Heat {J/kg-K}
  0.9,                                    ! Thermal Absorptance
  0.78,                                   ! Solar Absorptance
  0.78;                                   ! Visible Absorptance

OS:Material,
  {454618b1-6cd4-428b-9f13-1feb5b9c5fee}, ! Handle
  1IN Wood Decking,                       ! Name
  MediumSmooth,                           ! Roughness
  0.0254,                                 ! Thickness {m}
  0.1211,                                 ! Conductivity {W/m-K}
  593,                                    ! Density {kg/m3}
  2510,                                   ! Specific Heat {J/kg-K}
  0.9,                                    ! Thermal Absorptance
  0.78,                                   ! Solar Absorptance
  0.78;                                   ! Visible Absorptance

OS:Material,
  {c192a520-a581-4a85-81f7-e948aa8bda2f}, ! Handle
  Roof Insulation [5],                    ! Name
  MediumRough,                            ! Roughness
  0.286906,                               ! Thickness {m}
  0.049,                                  ! Conductivity {W/m-K}
  265,                                    ! Density {kg/m3}
  836.8,                                  ! Specific Heat {J/kg-K}
  0.9,                                    ! Thermal Absorptance
  0.7,                                    ! Solar Absorptance
  0.7;                                    ! Visible Absorptance

OS:Material,
  {972dfd5d-a76f-407f-8bd1-3ecb659a4803}, ! Handle
  1/2IN Gypsum,                           ! Name
  Smooth,                                 ! Roughness
  0.01271,                                ! Thickness {m}
  0.16,                                   ! Conductivity {W/m-K}
  784.9,                                  ! Density {kg/m3}
  830,                                    ! Specific Heat {J/kg-K}
  0.9,                                    ! Thermal Absorptance
  0.92,                                   ! Solar Absorptance
  0.92;                                   ! Visible Absorptance

OS:ComponentCost:LineItem,
  {03dccde3-7bc5-4079-b4f4-69fe1fdb4f2c}, ! Handle
  90.1-2007 Res 3A Roof Attic and Other,  ! Name
  ,                                       ! Type
  Construction,                           ! Line Item Type
  90.1-2007 Res 3A Roof Attic and Other,  ! Item Name
  ,                                       ! Object End Use Key
  ,                                       ! Quantity {dimensionless}
  34.757,                                 ! Material Cost {$}
  CostPerArea;                            ! Material Cost Units

OS:ComponentData,
  {e8ba079f-9f39-45d4-aea3-bf434dc38f3f}, ! Handle
  Component Data 1,                       ! Name
  {3e0458a1-d0e0-4085-9e90-0d010dce7737}, ! UUID
  {563b0222-57e3-4951-93cc-d300dd307dbe}, ! Version UUID
  1363981843,                             ! Creation Timestamp
  1363981843,                             ! Version Timestamp
  {44c05676-6657-4c69-b37a-07c6588b2866}, ! Name of Object 1
  {c80a5292-e6f1-482f-a883-5c457a947f61}, ! Name of Object 2
  {454618b1-6cd4-428b-9f13-1feb5b9c5fee}, ! Name of Object 3
  {c192a520-a581-4a85-81f7-e948aa8bda2f}, ! Name of Object 4
  {972dfd5d-a76f-407f-8bd1-3ecb659a4803}, ! Name of Object 5
  {03dccde3-7bc5-4079-b4f4-69fe1fdb4f2c}; ! Name of Object 6

