
! 
OS:Version,
  {9c37d538-db0d-4a47-9850-5bede7e76bd5}, !- Handle
  1.13.0;                                 !- Version Identifier


! {"nombreProductoCorto": "CLIMALIT PLUS con PLANITHERM XN F2 F5 6(14 argon90%) 4 (14 argon90%) 44.2", "codigoEAN": "", "handle": "eea3f0cc-d30a-4a7a-be7b-6663a141c68d", "g": 0.53, "tV": 0.72, "u": 0.6, "nombreProducto": "CLIMALIT PLUS con PLANITHERM XN F2 F5 6(14 argon90%) 4 (14 argon90%) 44.2\nU:0.6 W/m2K - g:0.53 - Tv: 0.72"}
OS:WindowMaterial:SimpleGlazingSystem,
  {eea3f0cc-d30a-4a7a-be7b-6663a141c68d}, !- Handle
  CLIMALIT PLUS con PLANITHERM XN F2 F5 6(14 argon90%) 4 (14 argon90%) 44.2, !- Name
  0.6,                                    !- U-Factor {W/m2-K}
  0.53,                                    !- Solar Heat Gain Coefficient
  0.72;                                    !- Visible Transmittance     
  
  
OS:Construction,
  {5a1928e3-4831-48a6-90b7-1301cd4a97e5}, !- Handle
  CLIMALIT PLUS con PLANITHERM XN F2 F5 6(14 argon90%) 4 (14 argon90%) 44.2,                         !- Name
  ,                                       !- Surface Rendering Name
  {eea3f0cc-d30a-4a7a-be7b-6663a141c68d}; !- Layer 1  

