
OS:Version,
  {cbe077a6-d6f4-4439-b20e-986975969379}, ! Handle
  0.9.3;                                  ! Version Identifier

OS:Material,
  {36daf568-2a95-4c80-bd11-e57a20268ff6}, ! Handle
  Wood Shingles,                          ! Name
  VeryRough,                              ! Roughness
  0.0178,                                 ! Thickness {m}
  0.115,                                  ! Conductivity {W/m-K}
  513,                                    ! Density {kg/m3}
  1255,                                   ! Specific Heat {J/kg-K}
  0.9,                                    ! Thermal Absorptance
  0.78,                                   ! Solar Absorptance
  0.78;                                   ! Visible Absorptance

OS:Construction,
  {d596d8dc-aa24-4c82-a4de-7fbe40ff7ae4}, ! Handle
  90.1 Constructions Roof Attic and Other R-104.0, ! Name
  ,                                       ! Surface Rendering Name
  {36daf568-2a95-4c80-bd11-e57a20268ff6}, ! Layer 1
  {8f3de481-5d4d-4509-89e2-25fdbaabfe86}, ! Layer 2
  {b6ca32c5-df12-49ff-b220-372656dc7c47}, ! Layer 3
  {5790d0a7-661f-41de-bf48-d01a902ce1a6}; ! Layer 4

OS:Material,
  {8f3de481-5d4d-4509-89e2-25fdbaabfe86}, ! Handle
  1IN Wood Decking,                       ! Name
  MediumSmooth,                           ! Roughness
  0.0254,                                 ! Thickness {m}
  0.1211,                                 ! Conductivity {W/m-K}
  593,                                    ! Density {kg/m3}
  2510,                                   ! Specific Heat {J/kg-K}
  0.9,                                    ! Thermal Absorptance
  0.78,                                   ! Solar Absorptance
  0.78;                                   ! Visible Absorptance

OS:Material,
  {b6ca32c5-df12-49ff-b220-372656dc7c47}, ! Handle
  Roof Insulation [89],                   ! Name
  MediumRough,                            ! Roughness
  0.828741,                               ! Thickness {m}
  0.049,                                  ! Conductivity {W/m-K}
  265,                                    ! Density {kg/m3}
  836.8,                                  ! Specific Heat {J/kg-K}
  0.9,                                    ! Thermal Absorptance
  0.7,                                    ! Solar Absorptance
  0.7;                                    ! Visible Absorptance

OS:Material,
  {5790d0a7-661f-41de-bf48-d01a902ce1a6}, ! Handle
  1/2IN Gypsum,                           ! Name
  Smooth,                                 ! Roughness
  0.01271,                                ! Thickness {m}
  0.16,                                   ! Conductivity {W/m-K}
  784.9,                                  ! Density {kg/m3}
  830,                                    ! Specific Heat {J/kg-K}
  0.9,                                    ! Thermal Absorptance
  0.92,                                   ! Solar Absorptance
  0.92;                                   ! Visible Absorptance

OS:ComponentCost:LineItem,
  {2c1f6d4d-d164-4d5a-a6d4-75e49ad6548d}, ! Handle
  90.1 Constructions Roof Attic and Other R-104.0, ! Name
  ,                                       ! Type
  Construction,                           ! Line Item Type
  90.1 Constructions Roof Attic and Other R-104.0, ! Item Name
  ,                                       ! Object End Use Key
  ,                                       ! Quantity {dimensionless}
  45.305,                                 ! Material Cost {$}
  CostPerArea;                            ! Material Cost Units

