
OS:Version,
  {9e3867b8-2167-47a2-a473-66df4c848d5a}, ! Handle
  0.9.3;                                  ! Version Identifier

OS:Construction,
  {306b4d43-3461-4771-a844-1facd057e74d}, ! Handle
  90.1-1999 Nonres B1 Roof Attic and Other, ! Name
  ,                                       ! Surface Rendering Name
  {91d09c0b-8a97-4882-943f-9c66223e76c0}, ! Layer 1
  {b6c91c24-1f8b-4f02-83ab-d719a9a0a92a}, ! Layer 2
  {ad67f9b8-70a4-483c-8e6c-7e7c49781b43}, ! Layer 3
  {1a1b1931-f6b6-43a2-ae76-88bc7f55c317}; ! Layer 4

OS:Material,
  {91d09c0b-8a97-4882-943f-9c66223e76c0}, ! Handle
  Wood Shingles,                          ! Name
  VeryRough,                              ! Roughness
  0.0178,                                 ! Thickness {m}
  0.115,                                  ! Conductivity {W/m-K}
  513,                                    ! Density {kg/m3}
  1255,                                   ! Specific Heat {J/kg-K}
  0.9,                                    ! Thermal Absorptance
  0.78,                                   ! Solar Absorptance
  0.78;                                   ! Visible Absorptance

OS:Material,
  {b6c91c24-1f8b-4f02-83ab-d719a9a0a92a}, ! Handle
  1IN Wood Decking,                       ! Name
  MediumSmooth,                           ! Roughness
  0.0254,                                 ! Thickness {m}
  0.1211,                                 ! Conductivity {W/m-K}
  593,                                    ! Density {kg/m3}
  2510,                                   ! Specific Heat {J/kg-K}
  0.9,                                    ! Thermal Absorptance
  0.78,                                   ! Solar Absorptance
  0.78;                                   ! Visible Absorptance

OS:Material,
  {ad67f9b8-70a4-483c-8e6c-7e7c49781b43}, ! Handle
  Roof Insulation [2],                    ! Name
  MediumRough,                            ! Roughness
  0.221604,                               ! Thickness {m}
  0.049,                                  ! Conductivity {W/m-K}
  265,                                    ! Density {kg/m3}
  836.8,                                  ! Specific Heat {J/kg-K}
  0.9,                                    ! Thermal Absorptance
  0.7,                                    ! Solar Absorptance
  0.7;                                    ! Visible Absorptance

OS:Material,
  {1a1b1931-f6b6-43a2-ae76-88bc7f55c317}, ! Handle
  1/2IN Gypsum,                           ! Name
  Smooth,                                 ! Roughness
  0.01271,                                ! Thickness {m}
  0.16,                                   ! Conductivity {W/m-K}
  784.9,                                  ! Density {kg/m3}
  830,                                    ! Specific Heat {J/kg-K}
  0.9,                                    ! Thermal Absorptance
  0.92,                                   ! Solar Absorptance
  0.92;                                   ! Visible Absorptance

OS:ComponentCost:LineItem,
  {db812b75-82a4-4306-8027-20295558de77}, ! Handle
  90.1-1999 Nonres B1 Roof Attic and Other, ! Name
  ,                                       ! Type
  Construction,                           ! Line Item Type
  90.1-1999 Nonres B1 Roof Attic and Other, ! Item Name
  ,                                       ! Object End Use Key
  ,                                       ! Quantity {dimensionless}
  33.39,                                  ! Material Cost {$}
  CostPerArea;                            ! Material Cost Units

OS:ComponentData,
  {1942d36f-f822-4102-ab1c-000a117138f4}, ! Handle
  Component Data 1,                       ! Name
  {449253f8-d21f-4a64-b812-184c1fc465e3}, ! UUID
  {926d543d-5539-4805-8aad-17db558a9c9a}, ! Version UUID
  1363981036,                             ! Creation Timestamp
  1363981036,                             ! Version Timestamp
  {306b4d43-3461-4771-a844-1facd057e74d}, ! Name of Object 1
  {91d09c0b-8a97-4882-943f-9c66223e76c0}, ! Name of Object 2
  {b6c91c24-1f8b-4f02-83ab-d719a9a0a92a}, ! Name of Object 3
  {ad67f9b8-70a4-483c-8e6c-7e7c49781b43}, ! Name of Object 4
  {1a1b1931-f6b6-43a2-ae76-88bc7f55c317}, ! Name of Object 5
  {db812b75-82a4-4306-8027-20295558de77}; ! Name of Object 6

