
OS:Version,
  {569a22da-dfbf-45d8-9727-1fcffb63a17f}, ! Handle
  0.9.3;                                  ! Version Identifier

OS:Material,
  {f52e403f-a1b9-43ed-aca9-1490f78f6b2d}, ! Handle
  1/2IN Gypsum,                           ! Name
  Smooth,                                 ! Roughness
  0.01271,                                ! Thickness {m}
  0.16,                                   ! Conductivity {W/m-K}
  784.9,                                  ! Density {kg/m3}
  830,                                    ! Specific Heat {J/kg-K}
  0.9,                                    ! Thermal Absorptance
  0.92,                                   ! Solar Absorptance
  0.92;                                   ! Visible Absorptance

OS:Material,
  {2b14570a-a7ad-4324-9149-1cff0ffbc57f}, ! Handle
  Wood Shingles,                          ! Name
  VeryRough,                              ! Roughness
  0.0178,                                 ! Thickness {m}
  0.115,                                  ! Conductivity {W/m-K}
  513,                                    ! Density {kg/m3}
  1255,                                   ! Specific Heat {J/kg-K}
  0.9,                                    ! Thermal Absorptance
  0.78,                                   ! Solar Absorptance
  0.78;                                   ! Visible Absorptance

OS:ComponentCost:LineItem,
  {b0a63f24-55c4-4b66-a567-357bda459d16}, ! Handle
  90.1-1999 Nonres B1 Roof Attic and Other, ! Name
  ,                                       ! Type
  Construction,                           ! Line Item Type
  90.1-1999 Nonres B1 Roof Attic and Other, ! Item Name
  ,                                       ! Object End Use Key
  ,                                       ! Quantity {dimensionless}
  33.39,                                  ! Material Cost {$}
  CostPerArea;                            ! Material Cost Units

OS:Material,
  {321fa687-1882-47f0-9dfd-a34b7233a3f5}, ! Handle
  Roof Insulation [2],                    ! Name
  MediumRough,                            ! Roughness
  0.221604,                               ! Thickness {m}
  0.049,                                  ! Conductivity {W/m-K}
  265,                                    ! Density {kg/m3}
  836.8,                                  ! Specific Heat {J/kg-K}
  0.9,                                    ! Thermal Absorptance
  0.7,                                    ! Solar Absorptance
  0.7;                                    ! Visible Absorptance

OS:Construction,
  {57678585-fc96-49f2-8827-2c152bf0d077}, ! Handle
  90.1-1999 Nonres B1 Roof Attic and Other, ! Name
  ,                                       ! Surface Rendering Name
  {2b14570a-a7ad-4324-9149-1cff0ffbc57f}, ! Layer 1
  {539d88f1-c94c-41e4-87ac-ca95eab6be1f}, ! Layer 2
  {321fa687-1882-47f0-9dfd-a34b7233a3f5}, ! Layer 3
  {f52e403f-a1b9-43ed-aca9-1490f78f6b2d}; ! Layer 4

OS:Material,
  {539d88f1-c94c-41e4-87ac-ca95eab6be1f}, ! Handle
  1IN Wood Decking,                       ! Name
  MediumSmooth,                           ! Roughness
  0.0254,                                 ! Thickness {m}
  0.1211,                                 ! Conductivity {W/m-K}
  593,                                    ! Density {kg/m3}
  2510,                                   ! Specific Heat {J/kg-K}
  0.9,                                    ! Thermal Absorptance
  0.78,                                   ! Solar Absorptance
  0.78;                                   ! Visible Absorptance

