
OS:Version,
  {c4439032-4b25-44a6-a1a2-589af8d2e129}, ! Handle
  0.9.3;                                  ! Version Identifier

OS:Construction,
  {93e668c5-62dc-4494-b3a5-e10ea11beb8a}, ! Handle
  90.1-2001 Res B14 Roof Attic and Other, ! Name
  ,                                       ! Surface Rendering Name
  {d925810e-b624-432d-a09a-6b9e0a1e20ec}, ! Layer 1
  {e634d9cf-3f03-481b-a5c1-236c871a2ac6}, ! Layer 2
  {666f20d6-02ec-44dd-8c88-261b6f169169}, ! Layer 3
  {daee91ba-a7ba-45f4-9baf-a12d9bae80f7}; ! Layer 4

OS:Material,
  {d925810e-b624-432d-a09a-6b9e0a1e20ec}, ! Handle
  Wood Shingles,                          ! Name
  VeryRough,                              ! Roughness
  0.0178,                                 ! Thickness {m}
  0.115,                                  ! Conductivity {W/m-K}
  513,                                    ! Density {kg/m3}
  1255,                                   ! Specific Heat {J/kg-K}
  0.9,                                    ! Thermal Absorptance
  0.78,                                   ! Solar Absorptance
  0.78;                                   ! Visible Absorptance

OS:Material,
  {e634d9cf-3f03-481b-a5c1-236c871a2ac6}, ! Handle
  1IN Wood Decking,                       ! Name
  MediumSmooth,                           ! Roughness
  0.0254,                                 ! Thickness {m}
  0.1211,                                 ! Conductivity {W/m-K}
  593,                                    ! Density {kg/m3}
  2510,                                   ! Specific Heat {J/kg-K}
  0.9,                                    ! Thermal Absorptance
  0.78,                                   ! Solar Absorptance
  0.78;                                   ! Visible Absorptance

OS:Material,
  {666f20d6-02ec-44dd-8c88-261b6f169169}, ! Handle
  Roof Insulation [2],                    ! Name
  MediumRough,                            ! Roughness
  0.221604,                               ! Thickness {m}
  0.049,                                  ! Conductivity {W/m-K}
  265,                                    ! Density {kg/m3}
  836.8,                                  ! Specific Heat {J/kg-K}
  0.9,                                    ! Thermal Absorptance
  0.7,                                    ! Solar Absorptance
  0.7;                                    ! Visible Absorptance

OS:Material,
  {daee91ba-a7ba-45f4-9baf-a12d9bae80f7}, ! Handle
  1/2IN Gypsum,                           ! Name
  Smooth,                                 ! Roughness
  0.01271,                                ! Thickness {m}
  0.16,                                   ! Conductivity {W/m-K}
  784.9,                                  ! Density {kg/m3}
  830,                                    ! Specific Heat {J/kg-K}
  0.9,                                    ! Thermal Absorptance
  0.92,                                   ! Solar Absorptance
  0.92;                                   ! Visible Absorptance

OS:ComponentCost:LineItem,
  {4c678c2f-5306-401e-be1a-d12cbb89d5a7}, ! Handle
  90.1-2001 Res B14 Roof Attic and Other, ! Name
  ,                                       ! Type
  Construction,                           ! Line Item Type
  90.1-2001 Res B14 Roof Attic and Other, ! Item Name
  ,                                       ! Object End Use Key
  ,                                       ! Quantity {dimensionless}
  33.39,                                  ! Material Cost {$}
  CostPerArea;                            ! Material Cost Units

OS:ComponentData,
  {749d0f38-3a34-4de6-ba74-07076cda9745}, ! Handle
  Component Data 1,                       ! Name
  {40a18996-0d34-49fd-afa1-3243bd85659a}, ! UUID
  {00c43c92-d8cb-4c27-bd47-40ae389d6ffe}, ! Version UUID
  1363981528,                             ! Creation Timestamp
  1363981528,                             ! Version Timestamp
  {93e668c5-62dc-4494-b3a5-e10ea11beb8a}, ! Name of Object 1
  {d925810e-b624-432d-a09a-6b9e0a1e20ec}, ! Name of Object 2
  {e634d9cf-3f03-481b-a5c1-236c871a2ac6}, ! Name of Object 3
  {666f20d6-02ec-44dd-8c88-261b6f169169}, ! Name of Object 4
  {daee91ba-a7ba-45f4-9baf-a12d9bae80f7}, ! Name of Object 5
  {4c678c2f-5306-401e-be1a-d12cbb89d5a7}; ! Name of Object 6

