
OS:Version,
  {bc3f9ad0-118f-49d8-b6aa-b5514c5dcfa5}, ! Handle
  0.9.3;                                  ! Version Identifier

OS:Material,
  {092cc668-22ed-49fa-8660-0b9d063af716}, ! Handle
  1IN Wood Decking,                       ! Name
  MediumSmooth,                           ! Roughness
  0.0254,                                 ! Thickness {m}
  0.1211,                                 ! Conductivity {W/m-K}
  593,                                    ! Density {kg/m3}
  2510,                                   ! Specific Heat {J/kg-K}
  0.9,                                    ! Thermal Absorptance
  0.78,                                   ! Solar Absorptance
  0.78;                                   ! Visible Absorptance

OS:Material,
  {af2d3e3f-d703-40c3-a7ca-817a152435f9}, ! Handle
  1/2IN Gypsum,                           ! Name
  Smooth,                                 ! Roughness
  0.01271,                                ! Thickness {m}
  0.16,                                   ! Conductivity {W/m-K}
  784.9,                                  ! Density {kg/m3}
  830,                                    ! Specific Heat {J/kg-K}
  0.9,                                    ! Thermal Absorptance
  0.92,                                   ! Solar Absorptance
  0.92;                                   ! Visible Absorptance

OS:Material,
  {570573cb-c3b2-4c43-853b-88eaacea48b4}, ! Handle
  Wood Shingles,                          ! Name
  VeryRough,                              ! Roughness
  0.0178,                                 ! Thickness {m}
  0.115,                                  ! Conductivity {W/m-K}
  513,                                    ! Density {kg/m3}
  1255,                                   ! Specific Heat {J/kg-K}
  0.9,                                    ! Thermal Absorptance
  0.78,                                   ! Solar Absorptance
  0.78;                                   ! Visible Absorptance

OS:ComponentCost:LineItem,
  {fb09966c-3422-464d-b41f-9d562d45e6a5}, ! Handle
  90.1-2001 Res B14 Roof Attic and Other, ! Name
  ,                                       ! Type
  Construction,                           ! Line Item Type
  90.1-2001 Res B14 Roof Attic and Other, ! Item Name
  ,                                       ! Object End Use Key
  ,                                       ! Quantity {dimensionless}
  33.39,                                  ! Material Cost {$}
  CostPerArea;                            ! Material Cost Units

OS:Material,
  {935e2493-97ee-44da-bf5c-94f7ca38f150}, ! Handle
  Roof Insulation [2],                    ! Name
  MediumRough,                            ! Roughness
  0.221604,                               ! Thickness {m}
  0.049,                                  ! Conductivity {W/m-K}
  265,                                    ! Density {kg/m3}
  836.8,                                  ! Specific Heat {J/kg-K}
  0.9,                                    ! Thermal Absorptance
  0.7,                                    ! Solar Absorptance
  0.7;                                    ! Visible Absorptance

OS:Construction,
  {e66ba751-6ac6-4570-ba78-c94c4b4e4c38}, ! Handle
  90.1-2001 Res B14 Roof Attic and Other, ! Name
  ,                                       ! Surface Rendering Name
  {570573cb-c3b2-4c43-853b-88eaacea48b4}, ! Layer 1
  {092cc668-22ed-49fa-8660-0b9d063af716}, ! Layer 2
  {935e2493-97ee-44da-bf5c-94f7ca38f150}, ! Layer 3
  {af2d3e3f-d703-40c3-a7ca-817a152435f9}; ! Layer 4

