
OS:Version,
  {506b3e5b-30f1-47a9-879c-761816adc301}, ! Handle
  0.9.3;                                  ! Version Identifier

OS:Construction,
  {9f699a3a-ac25-4792-bff0-c0b39406c52a}, ! Handle
  189.1-2009 Nonres 5B Skylight without Curb, ! Name
  ,                                       ! Surface Rendering Name
  {d206a760-07fc-416e-af99-9e8dc92e4009}; ! Layer 1

OS:WindowMaterial:Glazing,
  {d206a760-07fc-416e-af99-9e8dc92e4009}, ! Handle
  Theoretical Glass [212],                ! Name
  SpectralAverage,                        ! Optical Data Type
  ,                                       ! Window Glass Spectral Data Set Name
  0.003,                                  ! Thickness {m}
  0.340373,                               ! Solar Transmittance at Normal Incidence
  0.609627,                               ! Front Side Solar Reflectance at Normal Incidence
  0.609627,                               ! Back Side Solar Reflectance at Normal Incidence
  0.457336,                               ! Visible Transmittance at Normal Incidence
  0.492664,                               ! Front Side Visible Reflectance at Normal Incidence
  0.492664,                               ! Back Side Visible Reflectance at Normal Incidence
  0,                                      ! Infrared Transmittance at Normal Incidence
  0.9,                                    ! Front Side Infrared Hemispherical Emissivity
  0.9,                                    ! Back Side Infrared Hemispherical Emissivity
  0.0133196;                              ! Conductivity {W/m-K}

OS:ComponentCost:LineItem,
  {ce77532c-4fa6-4422-bb62-8b9579f5ca58}, ! Handle
  189.1-2009 Nonres 5B Skylight without Curb, ! Name
  ,                                       ! Type
  Construction,                           ! Line Item Type
  189.1-2009 Nonres 5B Skylight without Curb, ! Item Name
  ,                                       ! Object End Use Key
  ,                                       ! Quantity {dimensionless}
  590.568,                                ! Material Cost {$}
  CostPerArea;                            ! Material Cost Units

