
OS:Version,
  {0d5d1d16-bfdb-4f92-979a-880700752a8c}, ! Handle
  0.9.3;                                  ! Version Identifier

OS:Material,
  {991209ca-c459-4ed1-984c-c20d4af3cd26}, ! Handle
  Wood Shingles,                          ! Name
  VeryRough,                              ! Roughness
  0.0178,                                 ! Thickness {m}
  0.115,                                  ! Conductivity {W/m-K}
  513,                                    ! Density {kg/m3}
  1255,                                   ! Specific Heat {J/kg-K}
  0.9,                                    ! Thermal Absorptance
  0.78,                                   ! Solar Absorptance
  0.78;                                   ! Visible Absorptance

OS:Material,
  {ed49a0da-1bba-4cb5-b1ec-92656c279ce2}, ! Handle
  1IN Wood Decking,                       ! Name
  MediumSmooth,                           ! Roughness
  0.0254,                                 ! Thickness {m}
  0.1211,                                 ! Conductivity {W/m-K}
  593,                                    ! Density {kg/m3}
  2510,                                   ! Specific Heat {J/kg-K}
  0.9,                                    ! Thermal Absorptance
  0.78,                                   ! Solar Absorptance
  0.78;                                   ! Visible Absorptance

OS:Construction,
  {fe315d54-d234-435e-9e21-1416ea3cc99b}, ! Handle
  90.1-2001 Res B9 Roof Attic and Other,  ! Name
  ,                                       ! Surface Rendering Name
  {991209ca-c459-4ed1-984c-c20d4af3cd26}, ! Layer 1
  {ed49a0da-1bba-4cb5-b1ec-92656c279ce2}, ! Layer 2
  {736b307c-93a2-416a-b40a-ad6f4cc2c1c7}, ! Layer 3
  {b92d78c6-0f5a-4e02-9e62-fb4b8960f6bb}; ! Layer 4

OS:Material,
  {736b307c-93a2-416a-b40a-ad6f4cc2c1c7}, ! Handle
  Roof Insulation [2],                    ! Name
  MediumRough,                            ! Roughness
  0.221604,                               ! Thickness {m}
  0.049,                                  ! Conductivity {W/m-K}
  265,                                    ! Density {kg/m3}
  836.8,                                  ! Specific Heat {J/kg-K}
  0.9,                                    ! Thermal Absorptance
  0.7,                                    ! Solar Absorptance
  0.7;                                    ! Visible Absorptance

OS:Material,
  {b92d78c6-0f5a-4e02-9e62-fb4b8960f6bb}, ! Handle
  1/2IN Gypsum,                           ! Name
  Smooth,                                 ! Roughness
  0.01271,                                ! Thickness {m}
  0.16,                                   ! Conductivity {W/m-K}
  784.9,                                  ! Density {kg/m3}
  830,                                    ! Specific Heat {J/kg-K}
  0.9,                                    ! Thermal Absorptance
  0.92,                                   ! Solar Absorptance
  0.92;                                   ! Visible Absorptance

OS:ComponentCost:LineItem,
  {be098afe-03f4-466c-993f-af13199b77ea}, ! Handle
  90.1-2001 Res B9 Roof Attic and Other,  ! Name
  ,                                       ! Type
  Construction,                           ! Line Item Type
  90.1-2001 Res B9 Roof Attic and Other,  ! Item Name
  ,                                       ! Object End Use Key
  ,                                       ! Quantity {dimensionless}
  33.39,                                  ! Material Cost {$}
  CostPerArea;                            ! Material Cost Units

