
OS:Version,
  {c17028a7-a131-4669-8139-38c90aa5198c}, !- Handle
  1.1.0;                                  !- Version Identifier

OS:Construction,
  {fa50e841-7024-4eff-bcaa-1bd7fe8f1cdf}, !- Handle
  Dbl Elec Abs Bleached 6mm/13mm Arg,     !- Name
  ,                                       !- Surface Rendering Name
  {3f61af01-d9e3-4d35-b1fb-25f2a699400c}, !- Layer 1
  {83a29ad7-3018-4cb7-a0f0-3def94974fde}, !- Layer 2
  {31a161da-586a-4723-9d50-97a3c73c9809}; !- Layer 3

OS:WindowMaterial:Glazing,
  {3f61af01-d9e3-4d35-b1fb-25f2a699400c}, !- Handle
  ECABS-2 BLEACHED 6MM,                   !- Name
  SpectralAverage,                        !- Optical Data Type
  ,                                       !- Window Glass Spectral Data Set Name
  0.006,                                  !- Thickness {m}
  0.814,                                  !- Solar Transmittance at Normal Incidence
  0.086,                                  !- Front Side Solar Reflectance at Normal Incidence
  0.086,                                  !- Back Side Solar Reflectance at Normal Incidence
  0.847,                                  !- Visible Transmittance at Normal Incidence
  0.099,                                  !- Front Side Visible Reflectance at Normal Incidence
  0.099,                                  !- Back Side Visible Reflectance at Normal Incidence
  0,                                      !- Infrared Transmittance at Normal Incidence
  0.84,                                   !- Front Side Infrared Hemispherical Emissivity
  0.1,                                    !- Back Side Infrared Hemispherical Emissivity
  0.9;                                    !- Conductivity {W/m-K}

OS:WindowMaterial:Gas,
  {83a29ad7-3018-4cb7-a0f0-3def94974fde}, !- Handle
  ARGON 13MM,                             !- Name
  Argon,                                  !- Gas Type
  0.0127;                                 !- Thickness {m}

OS:WindowMaterial:Glazing,
  {31a161da-586a-4723-9d50-97a3c73c9809}, !- Handle
  CLEAR 6MM,                              !- Name
  SpectralAverage,                        !- Optical Data Type
  ,                                       !- Window Glass Spectral Data Set Name
  0.006,                                  !- Thickness {m}
  0.775,                                  !- Solar Transmittance at Normal Incidence
  0.071,                                  !- Front Side Solar Reflectance at Normal Incidence
  0.071,                                  !- Back Side Solar Reflectance at Normal Incidence
  0.881,                                  !- Visible Transmittance at Normal Incidence
  0.08,                                   !- Front Side Visible Reflectance at Normal Incidence
  0.08,                                   !- Back Side Visible Reflectance at Normal Incidence
  0,                                      !- Infrared Transmittance at Normal Incidence
  0.84,                                   !- Front Side Infrared Hemispherical Emissivity
  0.84,                                   !- Back Side Infrared Hemispherical Emissivity
  0.9;                                    !- Conductivity {W/m-K}

