
OS:Version,
  {1c562635-cc5f-4fee-8a84-6187e8159a75}, ! Handle
  0.9.3;                                  ! Version Identifier

OS:Material,
  {85a775d5-ef94-4a2f-8f17-904c551d753e}, ! Handle
  Metal Siding,                           ! Name
  Smooth,                                 ! Roughness
  0.0015,                                 ! Thickness {m}
  44.96,                                  ! Conductivity {W/m-K}
  7688.86,                                ! Density {kg/m3}
  410,                                    ! Specific Heat {J/kg-K}
  0.9,                                    ! Thermal Absorptance
  0.2,                                    ! Solar Absorptance
  0.2;                                    ! Visible Absorptance

OS:Material,
  {12284b1d-e947-4a01-a887-cb66449a9076}, ! Handle
  1/2IN Gypsum,                           ! Name
  Smooth,                                 ! Roughness
  0.01271,                                ! Thickness {m}
  0.16,                                   ! Conductivity {W/m-K}
  784.9,                                  ! Density {kg/m3}
  830,                                    ! Specific Heat {J/kg-K}
  0.9,                                    ! Thermal Absorptance
  0.92,                                   ! Solar Absorptance
  0.92;                                   ! Visible Absorptance

OS:Construction,
  {4c626eec-806e-4f18-a1b6-bcbb84bb10f0}, ! Handle
  90.1-1999 Res B6 Ext Wall Metal Building, ! Name
  ,                                       ! Surface Rendering Name
  {85a775d5-ef94-4a2f-8f17-904c551d753e}, ! Layer 1
  {f2a4b8f1-04bd-466f-990e-2b423385f0e6}, ! Layer 2
  {12284b1d-e947-4a01-a887-cb66449a9076}; ! Layer 3

OS:Material,
  {f2a4b8f1-04bd-466f-990e-2b423385f0e6}, ! Handle
  Wall Insulation,                        ! Name
  MediumRough,                            ! Roughness
  0.0598725,                              ! Thickness {m}
  0.045,                                  ! Conductivity {W/m-K}
  265,                                    ! Density {kg/m3}
  836.8,                                  ! Specific Heat {J/kg-K}
  0.9,                                    ! Thermal Absorptance
  0.7,                                    ! Solar Absorptance
  0.7;                                    ! Visible Absorptance

OS:ComponentCost:LineItem,
  {838205a7-ca1f-4ab9-9414-7d7788037b88}, ! Handle
  90.1-1999 Res B6 Ext Wall Metal Building, ! Name
  ,                                       ! Type
  Construction,                           ! Line Item Type
  90.1-1999 Res B6 Ext Wall Metal Building, ! Item Name
  ,                                       ! Object End Use Key
  ,                                       ! Quantity {dimensionless}
  98.78,                                  ! Material Cost {$}
  CostPerArea;                            ! Material Cost Units

