
OS:Version,
  {25d66606-625c-493c-a5cd-817fb6132c44}, ! Handle
  0.9.3;                                  ! Version Identifier

OS:Construction,
  {e261dcc0-f93c-4443-9fe2-e5e4548fe23f}, ! Handle
  90.1-1999 Res B6 Ext Wall Metal Building, ! Name
  ,                                       ! Surface Rendering Name
  {fc474497-d3b0-4f04-bb96-1f773633deed}, ! Layer 1
  {49146af9-e347-4954-a584-6b1c019ca93e}, ! Layer 2
  {757f6592-9e45-47a3-aa05-c4c9613eb7cf}; ! Layer 3

OS:Material,
  {fc474497-d3b0-4f04-bb96-1f773633deed}, ! Handle
  Metal Siding,                           ! Name
  Smooth,                                 ! Roughness
  0.0015,                                 ! Thickness {m}
  44.96,                                  ! Conductivity {W/m-K}
  7688.86,                                ! Density {kg/m3}
  410,                                    ! Specific Heat {J/kg-K}
  0.9,                                    ! Thermal Absorptance
  0.2,                                    ! Solar Absorptance
  0.2;                                    ! Visible Absorptance

OS:Material,
  {49146af9-e347-4954-a584-6b1c019ca93e}, ! Handle
  Wall Insulation,                        ! Name
  MediumRough,                            ! Roughness
  0.0598725,                              ! Thickness {m}
  0.045,                                  ! Conductivity {W/m-K}
  265,                                    ! Density {kg/m3}
  836.8,                                  ! Specific Heat {J/kg-K}
  0.9,                                    ! Thermal Absorptance
  0.7,                                    ! Solar Absorptance
  0.7;                                    ! Visible Absorptance

OS:Material,
  {757f6592-9e45-47a3-aa05-c4c9613eb7cf}, ! Handle
  1/2IN Gypsum,                           ! Name
  Smooth,                                 ! Roughness
  0.01271,                                ! Thickness {m}
  0.16,                                   ! Conductivity {W/m-K}
  784.9,                                  ! Density {kg/m3}
  830,                                    ! Specific Heat {J/kg-K}
  0.9,                                    ! Thermal Absorptance
  0.92,                                   ! Solar Absorptance
  0.92;                                   ! Visible Absorptance

OS:ComponentCost:LineItem,
  {98051e92-573d-43bd-904d-b102420f6249}, ! Handle
  90.1-1999 Res B6 Ext Wall Metal Building, ! Name
  ,                                       ! Type
  Construction,                           ! Line Item Type
  90.1-1999 Res B6 Ext Wall Metal Building, ! Item Name
  ,                                       ! Object End Use Key
  ,                                       ! Quantity {dimensionless}
  98.78,                                  ! Material Cost {$}
  CostPerArea;                            ! Material Cost Units

OS:ComponentData,
  {53ebc98a-6c97-4ea2-adcc-adb14e057dae}, ! Handle
  Component Data 1,                       ! Name
  {e2879d90-f41e-481f-854f-560ec4bdaba2}, ! UUID
  {8fe80de4-ba98-4e3d-8e74-7d3fb0b722d7}, ! Version UUID
  1363981187,                             ! Creation Timestamp
  1363981187,                             ! Version Timestamp
  {e261dcc0-f93c-4443-9fe2-e5e4548fe23f}, ! Name of Object 1
  {fc474497-d3b0-4f04-bb96-1f773633deed}, ! Name of Object 2
  {49146af9-e347-4954-a584-6b1c019ca93e}, ! Name of Object 3
  {757f6592-9e45-47a3-aa05-c4c9613eb7cf}, ! Name of Object 4
  {98051e92-573d-43bd-904d-b102420f6249}; ! Name of Object 5

