
OS:Version,
  {afec4502-0423-4f63-b6fb-7b2637bf6b80}, ! Handle
  0.9.3;                                  ! Version Identifier

OS:Construction,
  {65f612ef-0f0d-45c4-89a2-51b26a6a30e4}, ! Handle
  90.1-2007 Nonres 6B Roof Attic and Other, ! Name
  ,                                       ! Surface Rendering Name
  {490e4b9d-1cc9-42cb-a39d-7ddfec7a07a8}, ! Layer 1
  {3c604f27-69be-4ca1-9be5-49aca962433f}, ! Layer 2
  {fc17199d-958f-4f87-b67c-663cbff61be4}, ! Layer 3
  {8bf07ab2-3602-4e28-a1da-f2c2de3b64b8}; ! Layer 4

OS:Material,
  {490e4b9d-1cc9-42cb-a39d-7ddfec7a07a8}, ! Handle
  Wood Shingles,                          ! Name
  VeryRough,                              ! Roughness
  0.0178,                                 ! Thickness {m}
  0.115,                                  ! Conductivity {W/m-K}
  513,                                    ! Density {kg/m3}
  1255,                                   ! Specific Heat {J/kg-K}
  0.9,                                    ! Thermal Absorptance
  0.78,                                   ! Solar Absorptance
  0.78;                                   ! Visible Absorptance

OS:Material,
  {3c604f27-69be-4ca1-9be5-49aca962433f}, ! Handle
  1IN Wood Decking,                       ! Name
  MediumSmooth,                           ! Roughness
  0.0254,                                 ! Thickness {m}
  0.1211,                                 ! Conductivity {W/m-K}
  593,                                    ! Density {kg/m3}
  2510,                                   ! Specific Heat {J/kg-K}
  0.9,                                    ! Thermal Absorptance
  0.78,                                   ! Solar Absorptance
  0.78;                                   ! Visible Absorptance

OS:Material,
  {fc17199d-958f-4f87-b67c-663cbff61be4}, ! Handle
  Roof Insulation [5],                    ! Name
  MediumRough,                            ! Roughness
  0.286906,                               ! Thickness {m}
  0.049,                                  ! Conductivity {W/m-K}
  265,                                    ! Density {kg/m3}
  836.8,                                  ! Specific Heat {J/kg-K}
  0.9,                                    ! Thermal Absorptance
  0.7,                                    ! Solar Absorptance
  0.7;                                    ! Visible Absorptance

OS:Material,
  {8bf07ab2-3602-4e28-a1da-f2c2de3b64b8}, ! Handle
  1/2IN Gypsum,                           ! Name
  Smooth,                                 ! Roughness
  0.01271,                                ! Thickness {m}
  0.16,                                   ! Conductivity {W/m-K}
  784.9,                                  ! Density {kg/m3}
  830,                                    ! Specific Heat {J/kg-K}
  0.9,                                    ! Thermal Absorptance
  0.92,                                   ! Solar Absorptance
  0.92;                                   ! Visible Absorptance

OS:ComponentCost:LineItem,
  {bd1e7cf4-a48c-47f8-96fa-deaecbf665b9}, ! Handle
  90.1-2007 Nonres 6B Roof Attic and Other, ! Name
  ,                                       ! Type
  Construction,                           ! Line Item Type
  90.1-2007 Nonres 6B Roof Attic and Other, ! Item Name
  ,                                       ! Object End Use Key
  ,                                       ! Quantity {dimensionless}
  34.757,                                 ! Material Cost {$}
  CostPerArea;                            ! Material Cost Units

