
OS:Version,
  {b0779853-3f7c-4ddd-9828-49d7f34c95c6}, ! Handle
  0.9.3;                                  ! Version Identifier

OS:Construction,
  {ef1ca34e-54d0-4e01-96c4-940852c1d881}, ! Handle
  90.1-2001 Res B10 Roof IEAD,            ! Name
  ,                                       ! Surface Rendering Name
  {8d451bb3-d68c-4a12-be39-d78d4fc080a1}, ! Layer 1
  {5304b45c-e5c8-4ff1-a6d2-3ede6f4dcd3d}, ! Layer 2
  {9d274bf3-d4da-4789-a50e-655a8e334a19}; ! Layer 3

OS:Material,
  {8d451bb3-d68c-4a12-be39-d78d4fc080a1}, ! Handle
  Roof Membrane,                          ! Name
  VeryRough,                              ! Roughness
  0.0095,                                 ! Thickness {m}
  0.16,                                   ! Conductivity {W/m-K}
  1121.29,                                ! Density {kg/m3}
  1460,                                   ! Specific Heat {J/kg-K}
  0.9,                                    ! Thermal Absorptance
  0.7,                                    ! Solar Absorptance
  0.7;                                    ! Visible Absorptance

OS:Material,
  {5304b45c-e5c8-4ff1-a6d2-3ede6f4dcd3d}, ! Handle
  Roof Insulation,                        ! Name
  MediumRough,                            ! Roughness
  0.124958,                               ! Thickness {m}
  0.049,                                  ! Conductivity {W/m-K}
  265,                                    ! Density {kg/m3}
  836.8,                                  ! Specific Heat {J/kg-K}
  0.9,                                    ! Thermal Absorptance
  0.7,                                    ! Solar Absorptance
  0.7;                                    ! Visible Absorptance

OS:Material,
  {9d274bf3-d4da-4789-a50e-655a8e334a19}, ! Handle
  Metal Decking,                          ! Name
  MediumSmooth,                           ! Roughness
  0.001524,                               ! Thickness {m}
  45.006,                                 ! Conductivity {W/m-K}
  7680,                                   ! Density {kg/m3}
  418.4,                                  ! Specific Heat {J/kg-K}
  0.9,                                    ! Thermal Absorptance
  0.7,                                    ! Solar Absorptance
  0.3;                                    ! Visible Absorptance

OS:ComponentCost:LineItem,
  {b9cae929-2384-42b0-8cdb-79472b6ca7e3}, ! Handle
  90.1-2001 Res B10 Roof IEAD,            ! Name
  ,                                       ! Type
  Construction,                           ! Line Item Type
  90.1-2001 Res B10 Roof IEAD,            ! Item Name
  ,                                       ! Object End Use Key
  ,                                       ! Quantity {dimensionless}
  49.208,                                 ! Material Cost {$}
  CostPerArea;                            ! Material Cost Units

