
OS:Version,
  {20f20312-2d2f-455d-9dd4-1cad4acd2697}, !- Handle
  1.1.0;                                  !- Version Identifier

OS:Construction,
  {3bb01cf8-20bf-4b4a-a5cd-9be7158a04bd}, !- Handle
  Dbl Ref-C-L Tint 6mm/13mm Air,          !- Name
  ,                                       !- Surface Rendering Name
  {a791d1f3-56e2-4bb6-9197-2efa268d88a5}, !- Layer 1
  {34a21048-539b-46e5-b336-c7bc89d5b9e7}, !- Layer 2
  {be230eed-0e84-4e02-b8a1-80f0946410b1}; !- Layer 3

OS:WindowMaterial:Glazing,
  {a791d1f3-56e2-4bb6-9197-2efa268d88a5}, !- Handle
  REF C TINT LO 6MM,                      !- Name
  SpectralAverage,                        !- Optical Data Type
  ,                                       !- Window Glass Spectral Data Set Name
  0.006,                                  !- Thickness {m}
  0.07,                                   !- Solar Transmittance at Normal Incidence
  0.13,                                   !- Front Side Solar Reflectance at Normal Incidence
  0.49,                                   !- Back Side Solar Reflectance at Normal Incidence
  0.08,                                   !- Visible Transmittance at Normal Incidence
  0.13,                                   !- Front Side Visible Reflectance at Normal Incidence
  0.42,                                   !- Back Side Visible Reflectance at Normal Incidence
  0,                                      !- Infrared Transmittance at Normal Incidence
  0.84,                                   !- Front Side Infrared Hemispherical Emissivity
  0.43,                                   !- Back Side Infrared Hemispherical Emissivity
  0.9;                                    !- Conductivity {W/m-K}

OS:WindowMaterial:Gas,
  {34a21048-539b-46e5-b336-c7bc89d5b9e7}, !- Handle
  AIR 13MM,                               !- Name
  Air,                                    !- Gas Type
  0.0127;                                 !- Thickness {m}

OS:WindowMaterial:Glazing,
  {be230eed-0e84-4e02-b8a1-80f0946410b1}, !- Handle
  CLEAR 6MM,                              !- Name
  SpectralAverage,                        !- Optical Data Type
  ,                                       !- Window Glass Spectral Data Set Name
  0.006,                                  !- Thickness {m}
  0.775,                                  !- Solar Transmittance at Normal Incidence
  0.071,                                  !- Front Side Solar Reflectance at Normal Incidence
  0.071,                                  !- Back Side Solar Reflectance at Normal Incidence
  0.881,                                  !- Visible Transmittance at Normal Incidence
  0.08,                                   !- Front Side Visible Reflectance at Normal Incidence
  0.08,                                   !- Back Side Visible Reflectance at Normal Incidence
  0,                                      !- Infrared Transmittance at Normal Incidence
  0.84,                                   !- Front Side Infrared Hemispherical Emissivity
  0.84,                                   !- Back Side Infrared Hemispherical Emissivity
  0.9;                                    !- Conductivity {W/m-K}

