
OS:Version,
  {fdf7a4ac-eac9-4a69-811b-93f5274d9ac4}, ! Handle
  0.9.3;                                  ! Version Identifier

OS:Material:NoMass,
  {ca36ef9d-7ff0-4839-9b0e-67689a210363}, ! Handle
  CP02 CARPET PAD,                        ! Name
  VeryRough,                              ! Roughness
  0.21648,                                ! Thermal Resistance {m2-K/W}
  0.9,                                    ! Thermal Absorptance
  0.7,                                    ! Solar Absorptance
  0.8;                                    ! Visible Absorptance

OS:Material,
  {cab3b6d1-1a77-4804-8018-bac347da07db}, ! Handle
  MAT-CC05 4 HW CONCRETE,                 ! Name
  Rough,                                  ! Roughness
  0.1016,                                 ! Thickness {m}
  1.311,                                  ! Conductivity {W/m-K}
  2240,                                   ! Density {kg/m3}
  836.8,                                  ! Specific Heat {J/kg-K}
  0.9,                                    ! Thermal Absorptance
  0.7,                                    ! Solar Absorptance
  0.7;                                    ! Visible Absorptance

OS:ComponentCost:LineItem,
  {4919c94a-51a6-4bba-84dc-948e829c7008}, ! Handle
  90.1-1999 Nonres B7 Ext Slab Unheated - 4in Slab with Carpet, ! Name
  ,                                       ! Type
  Construction,                           ! Line Item Type
  90.1-1999 Nonres B7 Ext Slab Unheated - 4in Slab with Carpet, ! Item Name
  ,                                       ! Object End Use Key
  ,                                       ! Quantity {dimensionless}
  45.52,                                  ! Material Cost {$}
  CostPerArea;                            ! Material Cost Units

OS:Construction,
  {25a8a366-364f-4687-b96a-66aa8338519e}, ! Handle
  90.1-1999 Nonres B7 Ext Slab Unheated - 4in Slab with Carpet, ! Name
  ,                                       ! Surface Rendering Name
  {cab3b6d1-1a77-4804-8018-bac347da07db}, ! Layer 1
  {ca36ef9d-7ff0-4839-9b0e-67689a210363}; ! Layer 2

