
OS:Version,
  {fc03a916-f9fe-419a-ad09-e5ac2b07ff78}, ! Handle
  0.9.3;                                  ! Version Identifier

OS:Construction,
  {a3c9b8a4-1f57-43dd-84fd-62957540595d}, ! Handle
  189.1-2009 Nonres 3A Ext Wall Steel-Framed, ! Name
  ,                                       ! Surface Rendering Name
  {eec17488-e09d-4ea3-bad9-43f7db6f0c65}, ! Layer 1
  {cdedc229-d790-47b8-bda3-ed0736bb2ecb}, ! Layer 2
  {a8a0cc65-982d-4bbe-acca-83d2ce532766}; ! Layer 3

OS:Material:NoMass,
  {eec17488-e09d-4ea3-bad9-43f7db6f0c65}, ! Handle
  MAT-SHEATH,                             ! Name
  Rough,                                  ! Roughness
  0.36256,                                ! Thermal Resistance {m2-K/W}
  0.9,                                    ! Thermal Absorptance
  0.7,                                    ! Solar Absorptance
  0.7;                                    ! Visible Absorptance

OS:Material,
  {cdedc229-d790-47b8-bda3-ed0736bb2ecb}, ! Handle
  Wall Insulation [33],                   ! Name
  MediumRough,                            ! Roughness
  0.078148,                               ! Thickness {m}
  0.045,                                  ! Conductivity {W/m-K}
  265,                                    ! Density {kg/m3}
  836.8,                                  ! Specific Heat {J/kg-K}
  0.9,                                    ! Thermal Absorptance
  0.7,                                    ! Solar Absorptance
  0.7;                                    ! Visible Absorptance

OS:Material,
  {a8a0cc65-982d-4bbe-acca-83d2ce532766}, ! Handle
  1/2IN Gypsum,                           ! Name
  Smooth,                                 ! Roughness
  0.01271,                                ! Thickness {m}
  0.16,                                   ! Conductivity {W/m-K}
  784.9,                                  ! Density {kg/m3}
  830,                                    ! Specific Heat {J/kg-K}
  0.9,                                    ! Thermal Absorptance
  0.92,                                   ! Solar Absorptance
  0.92;                                   ! Visible Absorptance

OS:ComponentCost:LineItem,
  {76006936-bf3b-47f5-9a65-bcfef7894525}, ! Handle
  189.1-2009 Nonres 3A Ext Wall Steel-Framed, ! Name
  ,                                       ! Type
  Construction,                           ! Line Item Type
  189.1-2009 Nonres 3A Ext Wall Steel-Framed, ! Item Name
  ,                                       ! Object End Use Key
  ,                                       ! Quantity {dimensionless}
  92.941,                                 ! Material Cost {$}
  CostPerArea;                            ! Material Cost Units

OS:ComponentData,
  {bed65e66-decc-46eb-a03a-30525eff2dd8}, ! Handle
  Component Data 1,                       ! Name
  {2ec86ccb-1c17-4f44-aedd-3ebc36ae14b8}, ! UUID
  {7b31f29e-ff94-4669-8c38-bc55e5401ed4}, ! Version UUID
  1363979827,                             ! Creation Timestamp
  1363979827,                             ! Version Timestamp
  {a3c9b8a4-1f57-43dd-84fd-62957540595d}, ! Name of Object 1
  {eec17488-e09d-4ea3-bad9-43f7db6f0c65}, ! Name of Object 2
  {cdedc229-d790-47b8-bda3-ed0736bb2ecb}, ! Name of Object 3
  {a8a0cc65-982d-4bbe-acca-83d2ce532766}, ! Name of Object 4
  {76006936-bf3b-47f5-9a65-bcfef7894525}; ! Name of Object 5

