
OS:Version,
  {7bb118f1-1df5-492e-92af-c0cd3d7390e3}, ! Handle
  0.9.3;                                  ! Version Identifier

OS:Construction,
  {0afc7b64-43d6-4a88-9d48-3dcada60214d}, ! Handle
  189.1-2009 Nonres 3A Ext Wall Steel-Framed, ! Name
  ,                                       ! Surface Rendering Name
  {3a7ee546-ab74-446b-aa1a-f1431ca8d564}, ! Layer 1
  {eeec2b3b-1e3a-4e20-a38c-12d43104ccc2}, ! Layer 2
  {02beb89a-896d-4441-a201-3cd6075c7804}; ! Layer 3

OS:Material:NoMass,
  {3a7ee546-ab74-446b-aa1a-f1431ca8d564}, ! Handle
  MAT-SHEATH,                             ! Name
  Rough,                                  ! Roughness
  0.36256,                                ! Thermal Resistance {m2-K/W}
  0.9,                                    ! Thermal Absorptance
  0.7,                                    ! Solar Absorptance
  0.7;                                    ! Visible Absorptance

OS:Material,
  {eeec2b3b-1e3a-4e20-a38c-12d43104ccc2}, ! Handle
  Wall Insulation [33],                   ! Name
  MediumRough,                            ! Roughness
  0.078148,                               ! Thickness {m}
  0.045,                                  ! Conductivity {W/m-K}
  265,                                    ! Density {kg/m3}
  836.8,                                  ! Specific Heat {J/kg-K}
  0.9,                                    ! Thermal Absorptance
  0.7,                                    ! Solar Absorptance
  0.7;                                    ! Visible Absorptance

OS:Material,
  {02beb89a-896d-4441-a201-3cd6075c7804}, ! Handle
  1/2IN Gypsum,                           ! Name
  Smooth,                                 ! Roughness
  0.01271,                                ! Thickness {m}
  0.16,                                   ! Conductivity {W/m-K}
  784.9,                                  ! Density {kg/m3}
  830,                                    ! Specific Heat {J/kg-K}
  0.9,                                    ! Thermal Absorptance
  0.92,                                   ! Solar Absorptance
  0.92;                                   ! Visible Absorptance

OS:ComponentCost:LineItem,
  {edc424ba-2d32-4946-9071-1c9621ec1ae5}, ! Handle
  189.1-2009 Nonres 3A Ext Wall Steel-Framed, ! Name
  ,                                       ! Type
  Construction,                           ! Line Item Type
  189.1-2009 Nonres 3A Ext Wall Steel-Framed, ! Item Name
  ,                                       ! Object End Use Key
  ,                                       ! Quantity {dimensionless}
  92.941,                                 ! Material Cost {$}
  CostPerArea;                            ! Material Cost Units

