
OS:Version,
  {ed9b45d5-94b7-4592-92bf-d5773d8314d5}, ! Handle
  0.9.3;                                  ! Version Identifier

OS:Material,
  {4d0ff254-b3c1-44aa-89b0-daa2ef8c1a84}, ! Handle
  MAT-CC05 8 HW CONCRETE,                 ! Name
  Rough,                                  ! Roughness
  0.20321,                                ! Thickness {m}
  1.311,                                  ! Conductivity {W/m-K}
  2240,                                   ! Density {kg/m3}
  836.8,                                  ! Specific Heat {J/kg-K}
  0.9,                                    ! Thermal Absorptance
  0.7,                                    ! Solar Absorptance
  0.7;                                    ! Visible Absorptance

OS:Construction,
  {11832df6-874a-443b-8956-f21a1e68e706}, ! Handle
  AEDG K12 Nonres 4B Ext Slab Unheated - 8in Slab with Carpet, ! Name
  ,                                       ! Surface Rendering Name
  {4d0ff254-b3c1-44aa-89b0-daa2ef8c1a84}, ! Layer 1
  {c3ba6744-cd5e-4351-9869-7cf13f0a8b7d}; ! Layer 2

OS:Material:NoMass,
  {c3ba6744-cd5e-4351-9869-7cf13f0a8b7d}, ! Handle
  CP02 CARPET PAD,                        ! Name
  VeryRough,                              ! Roughness
  0.21648,                                ! Thermal Resistance {m2-K/W}
  0.9,                                    ! Thermal Absorptance
  0.7,                                    ! Solar Absorptance
  0.8;                                    ! Visible Absorptance

OS:ComponentCost:LineItem,
  {7f7c2efb-75c3-4dbe-ab3a-4afdfea10aab}, ! Handle
  AEDG K12 Nonres 4B Ext Slab Unheated - 8in Slab with Carpet, ! Name
  ,                                       ! Type
  Construction,                           ! Line Item Type
  AEDG K12 Nonres 4B Ext Slab Unheated - 8in Slab with Carpet, ! Item Name
  ,                                       ! Object End Use Key
  ,                                       ! Quantity {dimensionless}
  0,                                      ! Material Cost {$}
  CostPerArea;                            ! Material Cost Units

