
OS:Version,
  {bf50130e-7346-48fb-9fe2-179645d831d1}, ! Handle
  0.9.3;                                  ! Version Identifier

OS:Construction,
  {9af25ccf-5014-4f6b-b189-4498d1966d38}, ! Handle
  90.1-2001 Res B2 Skylight without Curb, ! Name
  ,                                       ! Surface Rendering Name
  {303df413-b930-4d0b-a040-97d979122a2d}; ! Layer 1

OS:WindowMaterial:Glazing,
  {303df413-b930-4d0b-a040-97d979122a2d}, ! Handle
  Theoretical Glass [63],                 ! Name
  SpectralAverage,                        ! Optical Data Type
  ,                                       ! Window Glass Spectral Data Set Name
  0.003,                                  ! Thickness {m}
  0.177255,                               ! Solar Transmittance at Normal Incidence
  0.772745,                               ! Front Side Solar Reflectance at Normal Incidence
  0.772745,                               ! Back Side Solar Reflectance at Normal Incidence
  0.176052,                               ! Visible Transmittance at Normal Incidence
  0.773948,                               ! Front Side Visible Reflectance at Normal Incidence
  0.773948,                               ! Back Side Visible Reflectance at Normal Incidence
  0,                                      ! Infrared Transmittance at Normal Incidence
  0.999,                                  ! Front Side Infrared Hemispherical Emissivity
  0.999,                                  ! Back Side Infrared Hemispherical Emissivity
  72.7123;                                ! Conductivity {W/m-K}

OS:ComponentCost:LineItem,
  {545f733a-098c-4d63-ad07-feb5f597b467}, ! Handle
  90.1-2001 Res B2 Skylight without Curb, ! Name
  ,                                       ! Type
  Construction,                           ! Line Item Type
  90.1-2001 Res B2 Skylight without Curb, ! Item Name
  ,                                       ! Object End Use Key
  ,                                       ! Quantity {dimensionless}
  539.136,                                ! Material Cost {$}
  CostPerArea;                            ! Material Cost Units

