
OS:Version,
  {38489d0b-2e06-45c0-b05b-f714a0f37e4e}, ! Handle
  0.9.3;                                  ! Version Identifier

OS:Material,
  {0f499029-e631-445c-8199-e6e3a3c1bdb5}, ! Handle
  Roof Insulation [5],                    ! Name
  MediumRough,                            ! Roughness
  0.286906,                               ! Thickness {m}
  0.049,                                  ! Conductivity {W/m-K}
  265,                                    ! Density {kg/m3}
  836.8,                                  ! Specific Heat {J/kg-K}
  0.9,                                    ! Thermal Absorptance
  0.7,                                    ! Solar Absorptance
  0.7;                                    ! Visible Absorptance

OS:Construction,
  {948edfbf-53b0-414a-a85b-1ada5e8196f0}, ! Handle
  90.1-1999 Res B1 Roof Attic and Other,  ! Name
  ,                                       ! Surface Rendering Name
  {9616f710-6308-499f-a666-805e068b76b8}, ! Layer 1
  {8f171718-b4af-4f63-9a8e-16af99ec98ad}, ! Layer 2
  {0f499029-e631-445c-8199-e6e3a3c1bdb5}, ! Layer 3
  {ed76a192-1e92-4d06-bda1-3c35dd51dcd4}; ! Layer 4

OS:Material,
  {9616f710-6308-499f-a666-805e068b76b8}, ! Handle
  Wood Shingles,                          ! Name
  VeryRough,                              ! Roughness
  0.0178,                                 ! Thickness {m}
  0.115,                                  ! Conductivity {W/m-K}
  513,                                    ! Density {kg/m3}
  1255,                                   ! Specific Heat {J/kg-K}
  0.9,                                    ! Thermal Absorptance
  0.78,                                   ! Solar Absorptance
  0.78;                                   ! Visible Absorptance

OS:Material,
  {8f171718-b4af-4f63-9a8e-16af99ec98ad}, ! Handle
  1IN Wood Decking,                       ! Name
  MediumSmooth,                           ! Roughness
  0.0254,                                 ! Thickness {m}
  0.1211,                                 ! Conductivity {W/m-K}
  593,                                    ! Density {kg/m3}
  2510,                                   ! Specific Heat {J/kg-K}
  0.9,                                    ! Thermal Absorptance
  0.78,                                   ! Solar Absorptance
  0.78;                                   ! Visible Absorptance

OS:Material,
  {ed76a192-1e92-4d06-bda1-3c35dd51dcd4}, ! Handle
  1/2IN Gypsum,                           ! Name
  Smooth,                                 ! Roughness
  0.01271,                                ! Thickness {m}
  0.16,                                   ! Conductivity {W/m-K}
  784.9,                                  ! Density {kg/m3}
  830,                                    ! Specific Heat {J/kg-K}
  0.9,                                    ! Thermal Absorptance
  0.92,                                   ! Solar Absorptance
  0.92;                                   ! Visible Absorptance

OS:ComponentCost:LineItem,
  {8672b9c0-5ed1-4c91-8637-88ad10b1db54}, ! Handle
  90.1-1999 Res B1 Roof Attic and Other,  ! Name
  ,                                       ! Type
  Construction,                           ! Line Item Type
  90.1-1999 Res B1 Roof Attic and Other,  ! Item Name
  ,                                       ! Object End Use Key
  ,                                       ! Quantity {dimensionless}
  34.757,                                 ! Material Cost {$}
  CostPerArea;                            ! Material Cost Units

