
OS:Version,
  {8f8b99a7-b322-488c-8b4b-11b77f659cdc}, !- Handle
  1.1.0;                                  !- Version Identifier

OS:Construction,
  {578a5d87-129a-4161-b149-85ff8570f80e}, !- Handle
  Trp LoE Film (33) Bronze 6mm/13mm Air,  !- Name
  ,                                       !- Surface Rendering Name
  {b71406cd-a29b-4bbb-9287-439710222776}, !- Layer 1
  {f079eb47-1818-4e4b-967d-7cf3d22e75c2}, !- Layer 2
  {d0fca6aa-4c12-4199-b5df-63d9948fb4e7}, !- Layer 3
  {f079eb47-1818-4e4b-967d-7cf3d22e75c2}, !- Layer 4
  {810c4ba4-14e4-478d-b8e4-7cb4e93f78ba}; !- Layer 5

OS:WindowMaterial:Glazing,
  {b71406cd-a29b-4bbb-9287-439710222776}, !- Handle
  BRONZE 6MM,                             !- Name
  SpectralAverage,                        !- Optical Data Type
  ,                                       !- Window Glass Spectral Data Set Name
  0.006,                                  !- Thickness {m}
  0.482,                                  !- Solar Transmittance at Normal Incidence
  0.054,                                  !- Front Side Solar Reflectance at Normal Incidence
  0.054,                                  !- Back Side Solar Reflectance at Normal Incidence
  0.534,                                  !- Visible Transmittance at Normal Incidence
  0.057,                                  !- Front Side Visible Reflectance at Normal Incidence
  0.057,                                  !- Back Side Visible Reflectance at Normal Incidence
  0,                                      !- Infrared Transmittance at Normal Incidence
  0.84,                                   !- Front Side Infrared Hemispherical Emissivity
  0.84,                                   !- Back Side Infrared Hemispherical Emissivity
  0.9;                                    !- Conductivity {W/m-K}

OS:WindowMaterial:Gas,
  {f079eb47-1818-4e4b-967d-7cf3d22e75c2}, !- Handle
  AIR 13MM,                               !- Name
  Air,                                    !- Gas Type
  0.0127;                                 !- Thickness {m}

OS:WindowMaterial:Glazing,
  {d0fca6aa-4c12-4199-b5df-63d9948fb4e7}, !- Handle
  COATED POLY-33,                         !- Name
  SpectralAverage,                        !- Optical Data Type
  ,                                       !- Window Glass Spectral Data Set Name
  0.00051,                                !- Thickness {m}
  0.178,                                  !- Solar Transmittance at Normal Incidence
  0.739,                                  !- Front Side Solar Reflectance at Normal Incidence
  0.738,                                  !- Back Side Solar Reflectance at Normal Incidence
  0.33,                                   !- Visible Transmittance at Normal Incidence
  0.566,                                  !- Front Side Visible Reflectance at Normal Incidence
  0.591,                                  !- Back Side Visible Reflectance at Normal Incidence
  0,                                      !- Infrared Transmittance at Normal Incidence
  0.035,                                  !- Front Side Infrared Hemispherical Emissivity
  0.72,                                   !- Back Side Infrared Hemispherical Emissivity
  0.14;                                   !- Conductivity {W/m-K}

OS:WindowMaterial:Glazing,
  {810c4ba4-14e4-478d-b8e4-7cb4e93f78ba}, !- Handle
  CLEAR 6MM,                              !- Name
  SpectralAverage,                        !- Optical Data Type
  ,                                       !- Window Glass Spectral Data Set Name
  0.006,                                  !- Thickness {m}
  0.775,                                  !- Solar Transmittance at Normal Incidence
  0.071,                                  !- Front Side Solar Reflectance at Normal Incidence
  0.071,                                  !- Back Side Solar Reflectance at Normal Incidence
  0.881,                                  !- Visible Transmittance at Normal Incidence
  0.08,                                   !- Front Side Visible Reflectance at Normal Incidence
  0.08,                                   !- Back Side Visible Reflectance at Normal Incidence
  0,                                      !- Infrared Transmittance at Normal Incidence
  0.84,                                   !- Front Side Infrared Hemispherical Emissivity
  0.84,                                   !- Back Side Infrared Hemispherical Emissivity
  0.9;                                    !- Conductivity {W/m-K}

