
OS:Version,
  {8d65bfe4-d98c-4b88-b369-e3bea0576cd2}, !- Handle
  1.1.0;                                  !- Version Identifier

OS:Construction,
  {8151940e-ca11-4d15-939c-901b3261218f}, !- Handle
  Trp LoE Film (33) Bronze 6mm/13mm Air,  !- Name
  ,                                       !- Surface Rendering Name
  {cc837dc7-4983-4516-be3b-0b61eb90d897}, !- Layer 1
  {4f4136c9-c8ac-4e42-b2cd-ff2bf741b6fa}, !- Layer 2
  {47de168c-6527-4ed2-abf7-f1a33e7d74a3}, !- Layer 3
  {4f4136c9-c8ac-4e42-b2cd-ff2bf741b6fa}, !- Layer 4
  {89433197-64bc-40de-a392-e40011c9adbc}; !- Layer 5

OS:WindowMaterial:Glazing,
  {cc837dc7-4983-4516-be3b-0b61eb90d897}, !- Handle
  BRONZE 6MM,                             !- Name
  SpectralAverage,                        !- Optical Data Type
  ,                                       !- Window Glass Spectral Data Set Name
  0.006,                                  !- Thickness {m}
  0.482,                                  !- Solar Transmittance at Normal Incidence
  0.054,                                  !- Front Side Solar Reflectance at Normal Incidence
  0.054,                                  !- Back Side Solar Reflectance at Normal Incidence
  0.534,                                  !- Visible Transmittance at Normal Incidence
  0.057,                                  !- Front Side Visible Reflectance at Normal Incidence
  0.057,                                  !- Back Side Visible Reflectance at Normal Incidence
  0,                                      !- Infrared Transmittance at Normal Incidence
  0.84,                                   !- Front Side Infrared Hemispherical Emissivity
  0.84,                                   !- Back Side Infrared Hemispherical Emissivity
  0.9;                                    !- Conductivity {W/m-K}

OS:WindowMaterial:Gas,
  {4f4136c9-c8ac-4e42-b2cd-ff2bf741b6fa}, !- Handle
  AIR 13MM,                               !- Name
  Air,                                    !- Gas Type
  0.0127;                                 !- Thickness {m}

OS:WindowMaterial:Glazing,
  {47de168c-6527-4ed2-abf7-f1a33e7d74a3}, !- Handle
  COATED POLY-33,                         !- Name
  SpectralAverage,                        !- Optical Data Type
  ,                                       !- Window Glass Spectral Data Set Name
  0.00051,                                !- Thickness {m}
  0.178,                                  !- Solar Transmittance at Normal Incidence
  0.739,                                  !- Front Side Solar Reflectance at Normal Incidence
  0.738,                                  !- Back Side Solar Reflectance at Normal Incidence
  0.33,                                   !- Visible Transmittance at Normal Incidence
  0.566,                                  !- Front Side Visible Reflectance at Normal Incidence
  0.591,                                  !- Back Side Visible Reflectance at Normal Incidence
  0,                                      !- Infrared Transmittance at Normal Incidence
  0.035,                                  !- Front Side Infrared Hemispherical Emissivity
  0.72,                                   !- Back Side Infrared Hemispherical Emissivity
  0.14;                                   !- Conductivity {W/m-K}

OS:WindowMaterial:Glazing,
  {89433197-64bc-40de-a392-e40011c9adbc}, !- Handle
  CLEAR 6MM,                              !- Name
  SpectralAverage,                        !- Optical Data Type
  ,                                       !- Window Glass Spectral Data Set Name
  0.006,                                  !- Thickness {m}
  0.775,                                  !- Solar Transmittance at Normal Incidence
  0.071,                                  !- Front Side Solar Reflectance at Normal Incidence
  0.071,                                  !- Back Side Solar Reflectance at Normal Incidence
  0.881,                                  !- Visible Transmittance at Normal Incidence
  0.08,                                   !- Front Side Visible Reflectance at Normal Incidence
  0.08,                                   !- Back Side Visible Reflectance at Normal Incidence
  0,                                      !- Infrared Transmittance at Normal Incidence
  0.84,                                   !- Front Side Infrared Hemispherical Emissivity
  0.84,                                   !- Back Side Infrared Hemispherical Emissivity
  0.9;                                    !- Conductivity {W/m-K}

OS:ComponentData,
  {d53c9ac3-7ef4-4d86-b1b3-451fdba0b68b}, !- Handle
  Component Data 1,                       !- Name
  {e3ad773a-7a41-4c61-b406-a27a017a465a}, !- UUID
  {c8b1508b-0632-4cdf-8839-e4687455ecd9}, !- Version UUID
  1384380187,                             !- Creation Timestamp
  1384380187,                             !- Version Timestamp
  {8151940e-ca11-4d15-939c-901b3261218f}, !- Name of Object 1
  {cc837dc7-4983-4516-be3b-0b61eb90d897}, !- Name of Object 2
  {4f4136c9-c8ac-4e42-b2cd-ff2bf741b6fa}, !- Name of Object 3
  {47de168c-6527-4ed2-abf7-f1a33e7d74a3}, !- Name of Object 4
  {89433197-64bc-40de-a392-e40011c9adbc}; !- Name of Object 5

