
OS:Version,
  {24c801d6-541b-498f-9a67-10f8c99f1bc7}, ! Handle
  0.9.3;                                  ! Version Identifier

OS:Construction,
  {949e1006-d98b-43cc-bf0d-16d4c482ff6e}, ! Handle
  Title 24-2005 Nonres 2 Roof Metal Building, ! Name
  ,                                       ! Surface Rendering Name
  {849fdc81-d902-4d76-95ee-90960d725495}, ! Layer 1
  {9e2f778a-fb31-4a9f-8337-1fad5d7c3af7}; ! Layer 2

OS:Material,
  {849fdc81-d902-4d76-95ee-90960d725495}, ! Handle
  Metal Roofing,                          ! Name
  MediumSmooth,                           ! Roughness
  0.001524,                               ! Thickness {m}
  45.006,                                 ! Conductivity {W/m-K}
  7680,                                   ! Density {kg/m3}
  418.4,                                  ! Specific Heat {J/kg-K}
  0.9,                                    ! Thermal Absorptance
  0.7,                                    ! Solar Absorptance
  0.3;                                    ! Visible Absorptance

OS:Material,
  {9e2f778a-fb31-4a9f-8337-1fad5d7c3af7}, ! Handle
  Roof Insulation [102],                  ! Name
  MediumRough,                            ! Roughness
  0.15998,                                ! Thickness {m}
  0.049,                                  ! Conductivity {W/m-K}
  265,                                    ! Density {kg/m3}
  836.8,                                  ! Specific Heat {J/kg-K}
  0.9,                                    ! Thermal Absorptance
  0.7,                                    ! Solar Absorptance
  0.7;                                    ! Visible Absorptance

OS:ComponentCost:LineItem,
  {005020bc-acab-41a7-a20d-96a01b001e8f}, ! Handle
  Title 24-2005 Nonres 2 Roof Metal Building, ! Name
  ,                                       ! Type
  Construction,                           ! Line Item Type
  Title 24-2005 Nonres 2 Roof Metal Building, ! Item Name
  ,                                       ! Object End Use Key
  ,                                       ! Quantity {dimensionless}
  41.645,                                 ! Material Cost {$}
  CostPerArea;                            ! Material Cost Units

OS:ComponentData,
  {6563a3a9-0677-413e-8160-e0b871009edb}, ! Handle
  Component Data 1,                       ! Name
  {40369660-6d85-4a2b-a455-ce945ab7d53f}, ! UUID
  {0dece01d-8080-455b-8766-e4e50a95095d}, ! Version UUID
  1363981971,                             ! Creation Timestamp
  1363981971,                             ! Version Timestamp
  {949e1006-d98b-43cc-bf0d-16d4c482ff6e}, ! Name of Object 1
  {849fdc81-d902-4d76-95ee-90960d725495}, ! Name of Object 2
  {9e2f778a-fb31-4a9f-8337-1fad5d7c3af7}, ! Name of Object 3
  {005020bc-acab-41a7-a20d-96a01b001e8f}; ! Name of Object 4

