
OS:Version,
  {14712b81-47a1-48dd-9449-1ccf49c29a27}, ! Handle
  0.9.3;                                  ! Version Identifier

OS:ComponentCost:LineItem,
  {44c95a8b-4242-4b9e-82fe-27086746eec9}, ! Handle
  Title 24-2005 Nonres 2 Roof Metal Building, ! Name
  ,                                       ! Type
  Construction,                           ! Line Item Type
  Title 24-2005 Nonres 2 Roof Metal Building, ! Item Name
  ,                                       ! Object End Use Key
  ,                                       ! Quantity {dimensionless}
  41.645,                                 ! Material Cost {$}
  CostPerArea;                            ! Material Cost Units

OS:Construction,
  {94bc86d9-8a57-41ba-ab6e-d10d4aa20379}, ! Handle
  Title 24-2005 Nonres 2 Roof Metal Building, ! Name
  ,                                       ! Surface Rendering Name
  {e99d5b81-e710-4919-9b5e-2222213f09e6}, ! Layer 1
  {df5d5da7-61a1-4f52-8921-d4bc09a682a4}; ! Layer 2

OS:Material,
  {e99d5b81-e710-4919-9b5e-2222213f09e6}, ! Handle
  Metal Roofing,                          ! Name
  MediumSmooth,                           ! Roughness
  0.001524,                               ! Thickness {m}
  45.006,                                 ! Conductivity {W/m-K}
  7680,                                   ! Density {kg/m3}
  418.4,                                  ! Specific Heat {J/kg-K}
  0.9,                                    ! Thermal Absorptance
  0.7,                                    ! Solar Absorptance
  0.3;                                    ! Visible Absorptance

OS:Material,
  {df5d5da7-61a1-4f52-8921-d4bc09a682a4}, ! Handle
  Roof Insulation [102],                  ! Name
  MediumRough,                            ! Roughness
  0.15998,                                ! Thickness {m}
  0.049,                                  ! Conductivity {W/m-K}
  265,                                    ! Density {kg/m3}
  836.8,                                  ! Specific Heat {J/kg-K}
  0.9,                                    ! Thermal Absorptance
  0.7,                                    ! Solar Absorptance
  0.7;                                    ! Visible Absorptance

