
OS:Version,
  {851f3615-4cf3-426d-93c7-db0b2558c301}, !- Handle
  1.1.0;                                  !- Version Identifier

OS:Construction,
  {d87669c9-e6f7-4fba-9707-617f6f60c45e}, !- Handle
  Sgl Ref-D Clr 6mm,                      !- Name
  ,                                       !- Surface Rendering Name
  {2a055192-260d-4e37-807a-0ad11be67b9d}; !- Layer 1

OS:WindowMaterial:Glazing,
  {2a055192-260d-4e37-807a-0ad11be67b9d}, !- Handle
  REF D CLEAR 6MM,                        !- Name
  SpectralAverage,                        !- Optical Data Type
  ,                                       !- Window Glass Spectral Data Set Name
  0.006,                                  !- Thickness {m}
  0.429,                                  !- Solar Transmittance at Normal Incidence
  0.308,                                  !- Front Side Solar Reflectance at Normal Incidence
  0.379,                                  !- Back Side Solar Reflectance at Normal Incidence
  0.334,                                  !- Visible Transmittance at Normal Incidence
  0.453,                                  !- Front Side Visible Reflectance at Normal Incidence
  0.505,                                  !- Back Side Visible Reflectance at Normal Incidence
  0,                                      !- Infrared Transmittance at Normal Incidence
  0.84,                                   !- Front Side Infrared Hemispherical Emissivity
  0.82,                                   !- Back Side Infrared Hemispherical Emissivity
  0.9;                                    !- Conductivity {W/m-K}

OS:ComponentData,
  {417b8e0e-9ee9-45da-baa6-f10d8dfe7e2d}, !- Handle
  Component Data 1,                       !- Name
  {4847c426-9b91-46d2-b0dd-b34b36b2699d}, !- UUID
  {99b5d8b4-cacf-4ce3-811f-a6e1a99fa3c3}, !- Version UUID
  1384380188,                             !- Creation Timestamp
  1384380188,                             !- Version Timestamp
  {d87669c9-e6f7-4fba-9707-617f6f60c45e}, !- Name of Object 1
  {2a055192-260d-4e37-807a-0ad11be67b9d}; !- Name of Object 2

