
OS:Version,
  {99c7f8cd-2df1-4c39-8540-847df129df32}, !- Handle
  1.1.0;                                  !- Version Identifier

OS:Construction,
  {5bb066a5-40dd-4b55-bdf7-0f9c506a157b}, !- Handle
  Sgl Ref-D Clr 6mm,                      !- Name
  ,                                       !- Surface Rendering Name
  {cb4c6ebb-fa91-45ec-bc46-deb397a9a754}; !- Layer 1

OS:WindowMaterial:Glazing,
  {cb4c6ebb-fa91-45ec-bc46-deb397a9a754}, !- Handle
  REF D CLEAR 6MM,                        !- Name
  SpectralAverage,                        !- Optical Data Type
  ,                                       !- Window Glass Spectral Data Set Name
  0.006,                                  !- Thickness {m}
  0.429,                                  !- Solar Transmittance at Normal Incidence
  0.308,                                  !- Front Side Solar Reflectance at Normal Incidence
  0.379,                                  !- Back Side Solar Reflectance at Normal Incidence
  0.334,                                  !- Visible Transmittance at Normal Incidence
  0.453,                                  !- Front Side Visible Reflectance at Normal Incidence
  0.505,                                  !- Back Side Visible Reflectance at Normal Incidence
  0,                                      !- Infrared Transmittance at Normal Incidence
  0.84,                                   !- Front Side Infrared Hemispherical Emissivity
  0.82,                                   !- Back Side Infrared Hemispherical Emissivity
  0.9;                                    !- Conductivity {W/m-K}

