
OS:Version,
  {442a1d4d-5776-42c7-a432-d918282205dd}, ! Handle
  0.9.3;                                  ! Version Identifier

OS:Construction,
  {e1b900ad-bba6-4001-adb0-71ea79b6d4f8}, ! Handle
  90.1-1999 Nonres B24 Ext Wall Steel-Framed, ! Name
  ,                                       ! Surface Rendering Name
  {069e3fda-6690-47a0-9765-24bfe0319ef8}, ! Layer 1
  {536a8ace-addd-4202-90ab-384c908858e9}, ! Layer 2
  {399b8ab2-2e91-46ea-b95e-8f899feb9e47}; ! Layer 3

OS:Material:NoMass,
  {069e3fda-6690-47a0-9765-24bfe0319ef8}, ! Handle
  MAT-SHEATH,                             ! Name
  Rough,                                  ! Roughness
  0.36256,                                ! Thermal Resistance {m2-K/W}
  0.9,                                    ! Thermal Absorptance
  0.7,                                    ! Solar Absorptance
  0.7;                                    ! Visible Absorptance

OS:Material,
  {536a8ace-addd-4202-90ab-384c908858e9}, ! Handle
  Wall Insulation [10],                   ! Name
  MediumRough,                            ! Roughness
  0.0971136,                              ! Thickness {m}
  0.045,                                  ! Conductivity {W/m-K}
  265,                                    ! Density {kg/m3}
  836.8,                                  ! Specific Heat {J/kg-K}
  0.9,                                    ! Thermal Absorptance
  0.7,                                    ! Solar Absorptance
  0.7;                                    ! Visible Absorptance

OS:Material,
  {399b8ab2-2e91-46ea-b95e-8f899feb9e47}, ! Handle
  1/2IN Gypsum,                           ! Name
  Smooth,                                 ! Roughness
  0.01271,                                ! Thickness {m}
  0.16,                                   ! Conductivity {W/m-K}
  784.9,                                  ! Density {kg/m3}
  830,                                    ! Specific Heat {J/kg-K}
  0.9,                                    ! Thermal Absorptance
  0.92,                                   ! Solar Absorptance
  0.92;                                   ! Visible Absorptance

OS:ComponentCost:LineItem,
  {6647770d-8c05-4956-bc43-19f183f97050}, ! Handle
  90.1-1999 Nonres B24 Ext Wall Steel-Framed, ! Name
  ,                                       ! Type
  Construction,                           ! Line Item Type
  90.1-1999 Nonres B24 Ext Wall Steel-Framed, ! Item Name
  ,                                       ! Object End Use Key
  ,                                       ! Quantity {dimensionless}
  94.657,                                 ! Material Cost {$}
  CostPerArea;                            ! Material Cost Units

