
! 
OS:Version,
  {9c37d538-db0d-4a47-9850-5bede7e76bd5}, !- Handle
  1.13.0;                                 !- Version Identifier


! {"nombreProductoCorto": "CLIMALIT PLUS con PLANITHERM PLANISTAR ONE F2 6 (16 argon90%) 4", "codigoEAN": "", "handle": "2c57040f-0dd2-4bcb-8146-d9db47278c33", "g": 0.38, "tV": 0.72, "u": 1.0, "nombreProducto": "CLIMALIT PLUS con PLANITHERM PLANISTAR ONE F2 6 (16 argon90%) 4\nU:1.0 W/m2K - g:0.38 - Tv: 0.72"}
OS:WindowMaterial:SimpleGlazingSystem,
  {2c57040f-0dd2-4bcb-8146-d9db47278c33}, !- Handle
  CLIMALIT PLUS con PLANITHERM PLANISTAR ONE F2 6 (16 argon90%) 4, !- Name
  1.0,                                    !- U-Factor {W/m2-K}
  0.38,                                    !- Solar Heat Gain Coefficient
  0.72;                                    !- Visible Transmittance     
  
  
OS:Construction,
  {57c837f8-500c-4727-8cff-10c35fdda67b}, !- Handle
  CLIMALIT PLUS con PLANITHERM PLANISTAR ONE F2 6 (16 argon90%) 4,                         !- Name
  ,                                       !- Surface Rendering Name
  {2c57040f-0dd2-4bcb-8146-d9db47278c33}; !- Layer 1  

