
! 
OS:Version,
  {8503bb35-3288-4176-9c41-752f3d976c4b}, !- Handle
  1.13.0;                                 !- Version Identifier


! 
OS:Material,
  {1613398c-4956-44ac-a5d1-9566711e255b}, !- Handle
  Aislamiento: SATE
WEBER: weber.therm placa PF 70 (0.070 m)
R: 3.5 m2K/W,                             !- Name
  MediumRough,                                 !- Roughness
  0.07,                                    !- Thickness {m}
  0.02,                                    !- Conductivity {W/m-K}
  35.0,                                    !- Density {kg/m3}
  800.0,                                    !- Specific Heat {J/kg-K}
  0.9,                                    !- Thermal Absorptance
  0.6,                                    !- Solar Absorptance
  0.6;                                    !- Visible Absorptance

