
OS:Version,
  {f478a975-e0c9-467f-8770-b31619040c8d}, ! Handle
  0.9.3;                                  ! Version Identifier

OS:Construction,
  {5d883ea8-8257-44be-90d0-be63fdca4872}, ! Handle
  90.1-2001 Nonres B9 Roof Attic and Other, ! Name
  ,                                       ! Surface Rendering Name
  {01374f0c-1823-47bd-9fbc-a0c2cd95e04e}, ! Layer 1
  {0ed9baf9-a8be-40d2-b3e6-2aa6b1fd6e14}, ! Layer 2
  {2ebd4160-2cfb-4549-bc1d-d662e0f3171d}, ! Layer 3
  {b6c7db9b-760c-41ef-b322-2aa8e252f11d}; ! Layer 4

OS:Material,
  {01374f0c-1823-47bd-9fbc-a0c2cd95e04e}, ! Handle
  Wood Shingles,                          ! Name
  VeryRough,                              ! Roughness
  0.0178,                                 ! Thickness {m}
  0.115,                                  ! Conductivity {W/m-K}
  513,                                    ! Density {kg/m3}
  1255,                                   ! Specific Heat {J/kg-K}
  0.9,                                    ! Thermal Absorptance
  0.78,                                   ! Solar Absorptance
  0.78;                                   ! Visible Absorptance

OS:Material,
  {0ed9baf9-a8be-40d2-b3e6-2aa6b1fd6e14}, ! Handle
  1IN Wood Decking,                       ! Name
  MediumSmooth,                           ! Roughness
  0.0254,                                 ! Thickness {m}
  0.1211,                                 ! Conductivity {W/m-K}
  593,                                    ! Density {kg/m3}
  2510,                                   ! Specific Heat {J/kg-K}
  0.9,                                    ! Thermal Absorptance
  0.78,                                   ! Solar Absorptance
  0.78;                                   ! Visible Absorptance

OS:Material,
  {2ebd4160-2cfb-4549-bc1d-d662e0f3171d}, ! Handle
  Roof Insulation [2],                    ! Name
  MediumRough,                            ! Roughness
  0.221604,                               ! Thickness {m}
  0.049,                                  ! Conductivity {W/m-K}
  265,                                    ! Density {kg/m3}
  836.8,                                  ! Specific Heat {J/kg-K}
  0.9,                                    ! Thermal Absorptance
  0.7,                                    ! Solar Absorptance
  0.7;                                    ! Visible Absorptance

OS:Material,
  {b6c7db9b-760c-41ef-b322-2aa8e252f11d}, ! Handle
  1/2IN Gypsum,                           ! Name
  Smooth,                                 ! Roughness
  0.01271,                                ! Thickness {m}
  0.16,                                   ! Conductivity {W/m-K}
  784.9,                                  ! Density {kg/m3}
  830,                                    ! Specific Heat {J/kg-K}
  0.9,                                    ! Thermal Absorptance
  0.92,                                   ! Solar Absorptance
  0.92;                                   ! Visible Absorptance

OS:ComponentCost:LineItem,
  {8c894573-0331-498c-b97b-83a9c04ffaa1}, ! Handle
  90.1-2001 Nonres B9 Roof Attic and Other, ! Name
  ,                                       ! Type
  Construction,                           ! Line Item Type
  90.1-2001 Nonres B9 Roof Attic and Other, ! Item Name
  ,                                       ! Object End Use Key
  ,                                       ! Quantity {dimensionless}
  33.39,                                  ! Material Cost {$}
  CostPerArea;                            ! Material Cost Units

OS:ComponentData,
  {c9cd5837-8fb2-4f22-ba2e-ee6af09eeef8}, ! Handle
  Component Data 1,                       ! Name
  {16921dd2-04f9-4f3d-9f3b-ee6fc67a1467}, ! UUID
  {1d10d897-73c8-447d-8136-63a43675119a}, ! Version UUID
  1363981332,                             ! Creation Timestamp
  1363981332,                             ! Version Timestamp
  {5d883ea8-8257-44be-90d0-be63fdca4872}, ! Name of Object 1
  {01374f0c-1823-47bd-9fbc-a0c2cd95e04e}, ! Name of Object 2
  {0ed9baf9-a8be-40d2-b3e6-2aa6b1fd6e14}, ! Name of Object 3
  {2ebd4160-2cfb-4549-bc1d-d662e0f3171d}, ! Name of Object 4
  {b6c7db9b-760c-41ef-b322-2aa8e252f11d}, ! Name of Object 5
  {8c894573-0331-498c-b97b-83a9c04ffaa1}; ! Name of Object 6

