
OS:Version,
  {03398ac4-8500-44ad-8830-d200479a05e0}, ! Handle
  0.9.3;                                  ! Version Identifier

OS:Construction,
  {f5904c42-280b-4061-a0eb-784deb866380}, ! Handle
  90.1-1999 Res B6 Int Wall,              ! Name
  ,                                       ! Surface Rendering Name
  {fed5f7d3-2d85-42ce-a76a-d72f29d4a1da}, ! Layer 1
  {fed5f7d3-2d85-42ce-a76a-d72f29d4a1da}; ! Layer 2

OS:Material,
  {fed5f7d3-2d85-42ce-a76a-d72f29d4a1da}, ! Handle
  GP01 1/2 GYPSUM,                        ! Name
  Smooth,                                 ! Roughness
  0.01271,                                ! Thickness {m}
  0.16,                                   ! Conductivity {W/m-K}
  800,                                    ! Density {kg/m3}
  1090,                                   ! Specific Heat {J/kg-K}
  0.9,                                    ! Thermal Absorptance
  0.7,                                    ! Solar Absorptance
  0.5;                                    ! Visible Absorptance

OS:ComponentCost:LineItem,
  {ecea78bc-ccf2-4006-972f-5a4f583c40cd}, ! Handle
  90.1-1999 Res B6 Int Wall,              ! Name
  ,                                       ! Type
  Construction,                           ! Line Item Type
  90.1-1999 Res B6 Int Wall,              ! Item Name
  ,                                       ! Object End Use Key
  ,                                       ! Quantity {dimensionless}
  0,                                      ! Material Cost {$}
  CostPerArea;                            ! Material Cost Units

OS:Material,
  {37240464-48b6-4b60-8b49-025b29b390a6}, ! Handle
  GP01 1/2 GYPSUM 1,                      ! Name
  Smooth,                                 ! Roughness
  0.01271,                                ! Thickness {m}
  0.16,                                   ! Conductivity {W/m-K}
  800,                                    ! Density {kg/m3}
  1090,                                   ! Specific Heat {J/kg-K}
  0.9,                                    ! Thermal Absorptance
  0.7,                                    ! Solar Absorptance
  0.5;                                    ! Visible Absorptance

