
OS:Version,
  {4844ea6f-3768-4f84-b7c3-bb935f70f23a}, ! Handle
  0.9.3;                                  ! Version Identifier

OS:Material,
  {7a68e79b-481e-4c2b-a1f6-444552f206b9}, ! Handle
  Metal Decking,                          ! Name
  MediumSmooth,                           ! Roughness
  0.001524,                               ! Thickness {m}
  45.006,                                 ! Conductivity {W/m-K}
  7680,                                   ! Density {kg/m3}
  418.4,                                  ! Specific Heat {J/kg-K}
  0.9,                                    ! Thermal Absorptance
  0.7,                                    ! Solar Absorptance
  0.3;                                    ! Visible Absorptance

OS:Material,
  {6d31ac85-10c6-4956-b54c-1ca1ef222cf3}, ! Handle
  Roof Membrane,                          ! Name
  VeryRough,                              ! Roughness
  0.0095,                                 ! Thickness {m}
  0.16,                                   ! Conductivity {W/m-K}
  1121.29,                                ! Density {kg/m3}
  1460,                                   ! Specific Heat {J/kg-K}
  0.9,                                    ! Thermal Absorptance
  0.7,                                    ! Solar Absorptance
  0.7;                                    ! Visible Absorptance

OS:Construction,
  {d15402dc-4041-4903-a470-06d4c0a41a66}, ! Handle
  90.1-2001 Nonres B5 Roof IEAD,          ! Name
  ,                                       ! Surface Rendering Name
  {6d31ac85-10c6-4956-b54c-1ca1ef222cf3}, ! Layer 1
  {16767a81-4455-42dd-be42-5e4f63206157}, ! Layer 2
  {7a68e79b-481e-4c2b-a1f6-444552f206b9}; ! Layer 3

OS:Material,
  {16767a81-4455-42dd-be42-5e4f63206157}, ! Handle
  Roof Insulation,                        ! Name
  MediumRough,                            ! Roughness
  0.124958,                               ! Thickness {m}
  0.049,                                  ! Conductivity {W/m-K}
  265,                                    ! Density {kg/m3}
  836.8,                                  ! Specific Heat {J/kg-K}
  0.9,                                    ! Thermal Absorptance
  0.7,                                    ! Solar Absorptance
  0.7;                                    ! Visible Absorptance

OS:ComponentCost:LineItem,
  {4a4f0499-f26d-4eba-b6c9-38b8679d7ce2}, ! Handle
  90.1-2001 Nonres B5 Roof IEAD,          ! Name
  ,                                       ! Type
  Construction,                           ! Line Item Type
  90.1-2001 Nonres B5 Roof IEAD,          ! Item Name
  ,                                       ! Object End Use Key
  ,                                       ! Quantity {dimensionless}
  49.208,                                 ! Material Cost {$}
  CostPerArea;                            ! Material Cost Units

