
OS:Version,
  {4437fcc5-f4ae-4e68-9725-b7f2e9eb6d23}, ! Handle
  0.9.3;                                  ! Version Identifier

OS:Material,
  {3962fff3-dc76-42d5-a3f2-abc18d8eb4ef}, ! Handle
  AtticFloor Insulation [49],             ! Name
  MediumRough,                            ! Roughness
  0.205862,                               ! Thickness {m}
  0.049,                                  ! Conductivity {W/m-K}
  265,                                    ! Density {kg/m3}
  836.8,                                  ! Specific Heat {J/kg-K}
  0.9,                                    ! Thermal Absorptance
  0.7,                                    ! Solar Absorptance
  0.7;                                    ! Visible Absorptance

OS:Construction,
  {79db5b39-4583-4f3e-80fb-22c5d91b84d0}, ! Handle
  Title 24-2008 Nonres 15 Attic Floor,    ! Name
  ,                                       ! Surface Rendering Name
  {547be17e-eba9-42e0-96dc-276fa702694f}, ! Layer 1
  {3962fff3-dc76-42d5-a3f2-abc18d8eb4ef}, ! Layer 2
  {cc2800df-da9e-4a88-a547-11833b3bb3d0}; ! Layer 3

OS:Material,
  {547be17e-eba9-42e0-96dc-276fa702694f}, ! Handle
  1/2IN Gypsum Top,                       ! Name
  Smooth,                                 ! Roughness
  0.01271,                                ! Thickness {m}
  0.16,                                   ! Conductivity {W/m-K}
  784.9,                                  ! Density {kg/m3}
  830,                                    ! Specific Heat {J/kg-K}
  0.9,                                    ! Thermal Absorptance
  0.92,                                   ! Solar Absorptance
  0.92;                                   ! Visible Absorptance

OS:Material,
  {cc2800df-da9e-4a88-a547-11833b3bb3d0}, ! Handle
  1/2IN Gypsum Bottom,                    ! Name
  Smooth,                                 ! Roughness
  0.01271,                                ! Thickness {m}
  0.16,                                   ! Conductivity {W/m-K}
  784.9,                                  ! Density {kg/m3}
  830,                                    ! Specific Heat {J/kg-K}
  0.9,                                    ! Thermal Absorptance
  0.92,                                   ! Solar Absorptance
  0.92;                                   ! Visible Absorptance

OS:ComponentCost:LineItem,
  {3184d0a1-3125-41fb-b191-fadf54027891}, ! Handle
  Title 24-2008 Nonres 15 Attic Floor,    ! Name
  ,                                       ! Type
  Construction,                           ! Line Item Type
  Title 24-2008 Nonres 15 Attic Floor,    ! Item Name
  ,                                       ! Object End Use Key
  ,                                       ! Quantity {dimensionless}
  33.117,                                 ! Material Cost {$}
  CostPerArea;                            ! Material Cost Units

