
OS:Version,
  {63b44e41-3ed9-4090-bd8e-be09f3941b2a}, ! Handle
  0.9.3;                                  ! Version Identifier

OS:Material,
  {105cd017-161d-4b87-a1b4-bebc1f6e5ea0}, ! Handle
  Metal Decking,                          ! Name
  MediumSmooth,                           ! Roughness
  0.001524,                               ! Thickness {m}
  45.006,                                 ! Conductivity {W/m-K}
  7680,                                   ! Density {kg/m3}
  418.4,                                  ! Specific Heat {J/kg-K}
  0.9,                                    ! Thermal Absorptance
  0.7,                                    ! Solar Absorptance
  0.3;                                    ! Visible Absorptance

OS:Material,
  {7c4631ff-2a4f-4b4f-a13c-768dd15719f6}, ! Handle
  Roof Membrane,                          ! Name
  VeryRough,                              ! Roughness
  0.0095,                                 ! Thickness {m}
  0.16,                                   ! Conductivity {W/m-K}
  1121.29,                                ! Density {kg/m3}
  1460,                                   ! Specific Heat {J/kg-K}
  0.9,                                    ! Thermal Absorptance
  0.7,                                    ! Solar Absorptance
  0.7;                                    ! Visible Absorptance

OS:Material,
  {82f0fc7a-c276-45a7-bd38-7cdc98cf812e}, ! Handle
  Roof Insulation [33],                   ! Name
  MediumRough,                            ! Roughness
  0.29595,                                ! Thickness {m}
  0.049,                                  ! Conductivity {W/m-K}
  265,                                    ! Density {kg/m3}
  836.8,                                  ! Specific Heat {J/kg-K}
  0.9,                                    ! Thermal Absorptance
  0.7,                                    ! Solar Absorptance
  0.7;                                    ! Visible Absorptance

OS:Construction,
  {58636042-bbf1-4644-a765-6cffc3d4f608}, ! Handle
  AEDG SHC Nonres 7A Roof IEAD,           ! Name
  ,                                       ! Surface Rendering Name
  {7c4631ff-2a4f-4b4f-a13c-768dd15719f6}, ! Layer 1
  {82f0fc7a-c276-45a7-bd38-7cdc98cf812e}, ! Layer 2
  {105cd017-161d-4b87-a1b4-bebc1f6e5ea0}; ! Layer 3

OS:ComponentCost:LineItem,
  {cccd35b7-dda1-477d-b972-a57b5320e86d}, ! Handle
  AEDG SHC Nonres 7A Roof IEAD,           ! Name
  ,                                       ! Type
  Construction,                           ! Line Item Type
  AEDG SHC Nonres 7A Roof IEAD,           ! Item Name
  ,                                       ! Object End Use Key
  ,                                       ! Quantity {dimensionless}
  0,                                      ! Material Cost {$}
  CostPerArea;                            ! Material Cost Units

