
OS:Version,
  {cec32b33-e5e6-476e-ae4a-991a8500d94d}, ! Handle
  0.9.3;                                  ! Version Identifier

OS:WindowMaterial:Glazing,
  {599930d7-1760-41dd-8fe7-80f6ea793889}, ! Handle
  Theoretical Glass [172],                ! Name
  SpectralAverage,                        ! Optical Data Type
  ,                                       ! Window Glass Spectral Data Set Name
  0.003,                                  ! Thickness {m}
  0.238593,                               ! Solar Transmittance at Normal Incidence
  0.711407,                               ! Front Side Solar Reflectance at Normal Incidence
  0.711407,                               ! Back Side Solar Reflectance at Normal Incidence
  0.251212,                               ! Visible Transmittance at Normal Incidence
  0.698788,                               ! Front Side Visible Reflectance at Normal Incidence
  0.698788,                               ! Back Side Visible Reflectance at Normal Incidence
  0,                                      ! Infrared Transmittance at Normal Incidence
  0.93,                                   ! Front Side Infrared Hemispherical Emissivity
  0.93,                                   ! Back Side Infrared Hemispherical Emissivity
  0.288556;                               ! Conductivity {W/m-K}

OS:ComponentCost:LineItem,
  {7ff00e3a-b7e9-44b8-99ab-4a05a7548c4e}, ! Handle
  90.1-2007 Res 2A Window Metal framing entrance door, ! Name
  ,                                       ! Type
  Construction,                           ! Line Item Type
  90.1-2007 Res 2A Window Metal framing entrance door, ! Item Name
  ,                                       ! Object End Use Key
  ,                                       ! Quantity {dimensionless}
  600.037,                                ! Material Cost {$}
  CostPerArea;                            ! Material Cost Units

OS:Construction,
  {2b9f271c-73c9-4ae0-8d42-95a780d44350}, ! Handle
  90.1-2007 Res 2A Window Metal framing entrance door, ! Name
  ,                                       ! Surface Rendering Name
  {599930d7-1760-41dd-8fe7-80f6ea793889}; ! Layer 1

