
OS:Version,
  {6c7ffdfd-7d5d-41ea-a86c-dbcf3794c701}, ! Handle
  0.9.3;                                  ! Version Identifier

OS:WindowMaterial:Glazing,
  {6155d3b7-d101-47ee-924b-f20840b6a88a}, ! Handle
  Theoretical Glass [188],                ! Name
  SpectralAverage,                        ! Optical Data Type
  ,                                       ! Window Glass Spectral Data Set Name
  0.003,                                  ! Thickness {m}
  0.445058,                               ! Solar Transmittance at Normal Incidence
  0.504942,                               ! Front Side Solar Reflectance at Normal Incidence
  0.504942,                               ! Back Side Solar Reflectance at Normal Incidence
  0.450308,                               ! Visible Transmittance at Normal Incidence
  0.499692,                               ! Front Side Visible Reflectance at Normal Incidence
  0.499692,                               ! Back Side Visible Reflectance at Normal Incidence
  0,                                      ! Infrared Transmittance at Normal Incidence
  0.9,                                    ! Front Side Infrared Hemispherical Emissivity
  0.9,                                    ! Back Side Infrared Hemispherical Emissivity
  0.00881723;                             ! Conductivity {W/m-K}

OS:Construction,
  {d8082e97-8986-4750-a6bd-514ea2b3912d}, ! Handle
  90.1-2007 Nonres 8A Window Nonmetal framing, ! Name
  ,                                       ! Surface Rendering Name
  {6155d3b7-d101-47ee-924b-f20840b6a88a}; ! Layer 1

OS:ComponentCost:LineItem,
  {4cda4947-03dd-44ac-bd9c-2c8282da8c0c}, ! Handle
  90.1-2007 Nonres 8A Window Nonmetal framing, ! Name
  ,                                       ! Type
  Construction,                           ! Line Item Type
  90.1-2007 Nonres 8A Window Nonmetal framing, ! Item Name
  ,                                       ! Object End Use Key
  ,                                       ! Quantity {dimensionless}
  508.362,                                ! Material Cost {$}
  CostPerArea;                            ! Material Cost Units

