
OS:Version,
  {aa3dd661-8398-4024-b5dd-736e61aa4ea5}, ! Handle
  0.9.3;                                  ! Version Identifier

OS:Construction,
  {7f8383da-bd21-4977-b80b-9b661ce7ac4c}, ! Handle
  90.1-1999 Res B23 Ext Wall Steel-Framed, ! Name
  ,                                       ! Surface Rendering Name
  {e371776c-a785-4021-86c0-1cebf74b920d}, ! Layer 1
  {c2fdae21-40eb-47d4-a786-86845601e7f9}, ! Layer 2
  {721b87a5-d395-468a-9af7-8e7122e720c0}; ! Layer 3

OS:Material:NoMass,
  {e371776c-a785-4021-86c0-1cebf74b920d}, ! Handle
  MAT-SHEATH,                             ! Name
  Rough,                                  ! Roughness
  0.36256,                                ! Thermal Resistance {m2-K/W}
  0.9,                                    ! Thermal Absorptance
  0.7,                                    ! Solar Absorptance
  0.7;                                    ! Visible Absorptance

OS:Material,
  {c2fdae21-40eb-47d4-a786-86845601e7f9}, ! Handle
  Wall Insulation [10],                   ! Name
  MediumRough,                            ! Roughness
  0.0971136,                              ! Thickness {m}
  0.045,                                  ! Conductivity {W/m-K}
  265,                                    ! Density {kg/m3}
  836.8,                                  ! Specific Heat {J/kg-K}
  0.9,                                    ! Thermal Absorptance
  0.7,                                    ! Solar Absorptance
  0.7;                                    ! Visible Absorptance

OS:Material,
  {721b87a5-d395-468a-9af7-8e7122e720c0}, ! Handle
  1/2IN Gypsum,                           ! Name
  Smooth,                                 ! Roughness
  0.01271,                                ! Thickness {m}
  0.16,                                   ! Conductivity {W/m-K}
  784.9,                                  ! Density {kg/m3}
  830,                                    ! Specific Heat {J/kg-K}
  0.9,                                    ! Thermal Absorptance
  0.92,                                   ! Solar Absorptance
  0.92;                                   ! Visible Absorptance

OS:ComponentCost:LineItem,
  {d266bb45-ecec-488d-885a-aff3d22a692e}, ! Handle
  90.1-1999 Res B23 Ext Wall Steel-Framed, ! Name
  ,                                       ! Type
  Construction,                           ! Line Item Type
  90.1-1999 Res B23 Ext Wall Steel-Framed, ! Item Name
  ,                                       ! Object End Use Key
  ,                                       ! Quantity {dimensionless}
  94.657,                                 ! Material Cost {$}
  CostPerArea;                            ! Material Cost Units

