
OS:Version,
  {6e16801d-72b6-4541-90bc-a73169dad499}, ! Handle
  0.9.3;                                  ! Version Identifier

OS:ComponentCost:LineItem,
  {75bbab05-c16a-42dc-9f87-ff70191aa09b}, ! Handle
  90.1-1999 Res B21 Ext Slab Unheated - 8in Slab with Carpet, ! Name
  ,                                       ! Type
  Construction,                           ! Line Item Type
  90.1-1999 Res B21 Ext Slab Unheated - 8in Slab with Carpet, ! Item Name
  ,                                       ! Object End Use Key
  ,                                       ! Quantity {dimensionless}
  45.52,                                  ! Material Cost {$}
  CostPerArea;                            ! Material Cost Units

OS:Material,
  {30edce32-0971-481a-a1fe-63bc2c05f7c9}, ! Handle
  MAT-CC05 8 HW CONCRETE,                 ! Name
  Rough,                                  ! Roughness
  0.20321,                                ! Thickness {m}
  1.311,                                  ! Conductivity {W/m-K}
  2240,                                   ! Density {kg/m3}
  836.8,                                  ! Specific Heat {J/kg-K}
  0.9,                                    ! Thermal Absorptance
  0.7,                                    ! Solar Absorptance
  0.7;                                    ! Visible Absorptance

OS:Construction,
  {193f677d-91d7-4207-b715-eeba7b0009a9}, ! Handle
  90.1-1999 Res B21 Ext Slab Unheated - 8in Slab with Carpet, ! Name
  ,                                       ! Surface Rendering Name
  {30edce32-0971-481a-a1fe-63bc2c05f7c9}, ! Layer 1
  {572ce992-a31c-43ce-abcd-c4f14ecd5d51}; ! Layer 2

OS:Material:NoMass,
  {572ce992-a31c-43ce-abcd-c4f14ecd5d51}, ! Handle
  CP02 CARPET PAD,                        ! Name
  VeryRough,                              ! Roughness
  0.21648,                                ! Thermal Resistance {m2-K/W}
  0.9,                                    ! Thermal Absorptance
  0.7,                                    ! Solar Absorptance
  0.8;                                    ! Visible Absorptance

