
OS:Version,
  {5eb5f515-f89a-4b1a-bcb1-a89652a5cc58}, ! Handle
  0.9.3;                                  ! Version Identifier

OS:Material,
  {ae770dc4-04ea-46d6-a516-d4751cc5d509}, ! Handle
  Wood Siding,                            ! Name
  MediumSmooth,                           ! Roughness
  0.01,                                   ! Thickness {m}
  0.11,                                   ! Conductivity {W/m-K}
  544.62,                                 ! Density {kg/m3}
  1210,                                   ! Specific Heat {J/kg-K}
  0.9,                                    ! Thermal Absorptance
  0.78,                                   ! Solar Absorptance
  0.78;                                   ! Visible Absorptance

OS:ComponentCost:LineItem,
  {b5761652-0952-4268-bc1b-3e864da35c7c}, ! Handle
  AEDG-SmOffice 6B Ext Wall Wood-Framed and Other, ! Name
  ,                                       ! Type
  Construction,                           ! Line Item Type
  AEDG-SmOffice 6B Ext Wall Wood-Framed and Other, ! Item Name
  ,                                       ! Object End Use Key
  ,                                       ! Quantity {dimensionless}
  77.608,                                 ! Material Cost {$}
  CostPerArea;                            ! Material Cost Units

OS:Material,
  {1549f38f-89cc-4821-9063-398dd5774386}, ! Handle
  1/2IN Gypsum,                           ! Name
  Smooth,                                 ! Roughness
  0.01271,                                ! Thickness {m}
  0.16,                                   ! Conductivity {W/m-K}
  784.9,                                  ! Density {kg/m3}
  830,                                    ! Specific Heat {J/kg-K}
  0.9,                                    ! Thermal Absorptance
  0.92,                                   ! Solar Absorptance
  0.92;                                   ! Visible Absorptance

OS:Material,
  {f26f3307-1c78-44a3-8cbc-f35010e4bfc3}, ! Handle
  Wall Insulation [11],                   ! Name
  MediumRough,                            ! Roughness
  0.109279,                               ! Thickness {m}
  0.045,                                  ! Conductivity {W/m-K}
  265,                                    ! Density {kg/m3}
  836.8,                                  ! Specific Heat {J/kg-K}
  0.9,                                    ! Thermal Absorptance
  0.7,                                    ! Solar Absorptance
  0.7;                                    ! Visible Absorptance

OS:Construction,
  {43ec8fe9-08f0-4b89-9329-2aa69b16a872}, ! Handle
  AEDG-SmOffice 6B Ext Wall Wood-Framed and Other, ! Name
  ,                                       ! Surface Rendering Name
  {ae770dc4-04ea-46d6-a516-d4751cc5d509}, ! Layer 1
  {f26f3307-1c78-44a3-8cbc-f35010e4bfc3}, ! Layer 2
  {1549f38f-89cc-4821-9063-398dd5774386}; ! Layer 3

