
OS:Version,
  {bed1dd77-f009-4f2a-a9f6-b3056d17ed5a}, ! Handle
  0.9.3;                                  ! Version Identifier

OS:Construction,
  {2ac2e795-c185-4436-a133-9a28689a71c8}, ! Handle
  AEDG-SmOffice 6B Ext Wall Wood-Framed and Other, ! Name
  ,                                       ! Surface Rendering Name
  {fc833ac8-7a4c-40bd-896b-a6ef48f90406}, ! Layer 1
  {52342e54-34dc-42b3-b3b5-e3ff30e0f2c5}, ! Layer 2
  {7899fa0c-3b55-4bc9-8965-154e9da107b1}; ! Layer 3

OS:Material,
  {fc833ac8-7a4c-40bd-896b-a6ef48f90406}, ! Handle
  Wood Siding,                            ! Name
  MediumSmooth,                           ! Roughness
  0.01,                                   ! Thickness {m}
  0.11,                                   ! Conductivity {W/m-K}
  544.62,                                 ! Density {kg/m3}
  1210,                                   ! Specific Heat {J/kg-K}
  0.9,                                    ! Thermal Absorptance
  0.78,                                   ! Solar Absorptance
  0.78;                                   ! Visible Absorptance

OS:Material,
  {52342e54-34dc-42b3-b3b5-e3ff30e0f2c5}, ! Handle
  Wall Insulation [11],                   ! Name
  MediumRough,                            ! Roughness
  0.109279,                               ! Thickness {m}
  0.045,                                  ! Conductivity {W/m-K}
  265,                                    ! Density {kg/m3}
  836.8,                                  ! Specific Heat {J/kg-K}
  0.9,                                    ! Thermal Absorptance
  0.7,                                    ! Solar Absorptance
  0.7;                                    ! Visible Absorptance

OS:Material,
  {7899fa0c-3b55-4bc9-8965-154e9da107b1}, ! Handle
  1/2IN Gypsum,                           ! Name
  Smooth,                                 ! Roughness
  0.01271,                                ! Thickness {m}
  0.16,                                   ! Conductivity {W/m-K}
  784.9,                                  ! Density {kg/m3}
  830,                                    ! Specific Heat {J/kg-K}
  0.9,                                    ! Thermal Absorptance
  0.92,                                   ! Solar Absorptance
  0.92;                                   ! Visible Absorptance

OS:ComponentCost:LineItem,
  {3f5b6220-c424-47a1-9426-04e69723bb4e}, ! Handle
  AEDG-SmOffice 6B Ext Wall Wood-Framed and Other, ! Name
  ,                                       ! Type
  Construction,                           ! Line Item Type
  AEDG-SmOffice 6B Ext Wall Wood-Framed and Other, ! Item Name
  ,                                       ! Object End Use Key
  ,                                       ! Quantity {dimensionless}
  77.608,                                 ! Material Cost {$}
  CostPerArea;                            ! Material Cost Units

OS:ComponentData,
  {abed474e-dd86-4f87-8339-e52afef611bc}, ! Handle
  Component Data 1,                       ! Name
  {c0b91d55-024b-4ae7-aab3-f1722041c667}, ! UUID
  {bf384b66-0baf-4490-9cef-40638f0bcf74}, ! Version UUID
  1363981959,                             ! Creation Timestamp
  1363981959,                             ! Version Timestamp
  {2ac2e795-c185-4436-a133-9a28689a71c8}, ! Name of Object 1
  {fc833ac8-7a4c-40bd-896b-a6ef48f90406}, ! Name of Object 2
  {52342e54-34dc-42b3-b3b5-e3ff30e0f2c5}, ! Name of Object 3
  {7899fa0c-3b55-4bc9-8965-154e9da107b1}, ! Name of Object 4
  {3f5b6220-c424-47a1-9426-04e69723bb4e}; ! Name of Object 5

