
OS:Version,
  {e82ab4c2-26a5-4791-96ef-47566d47d082}, ! Handle
  0.9.3;                                  ! Version Identifier

OS:Material,
  {f850c54b-d847-4ca8-9bc3-48e7f4e3ed12}, ! Handle
  Roof Insulation [1],                    ! Name
  MediumRough,                            ! Roughness
  0.123533,                               ! Thickness {m}
  0.049,                                  ! Conductivity {W/m-K}
  265,                                    ! Density {kg/m3}
  836.8,                                  ! Specific Heat {J/kg-K}
  0.9,                                    ! Thermal Absorptance
  0.7,                                    ! Solar Absorptance
  0.7;                                    ! Visible Absorptance

OS:Construction,
  {a78d5dc4-6baf-4206-a3fe-51d3005953ee}, ! Handle
  90.1-2001 Nonres B4 Roof Metal Building, ! Name
  ,                                       ! Surface Rendering Name
  {7e0d4db3-4513-4908-9ae4-aba434fd4c3e}, ! Layer 1
  {f850c54b-d847-4ca8-9bc3-48e7f4e3ed12}; ! Layer 2

OS:Material,
  {7e0d4db3-4513-4908-9ae4-aba434fd4c3e}, ! Handle
  Metal Roofing,                          ! Name
  MediumSmooth,                           ! Roughness
  0.001524,                               ! Thickness {m}
  45.006,                                 ! Conductivity {W/m-K}
  7680,                                   ! Density {kg/m3}
  418.4,                                  ! Specific Heat {J/kg-K}
  0.9,                                    ! Thermal Absorptance
  0.7,                                    ! Solar Absorptance
  0.3;                                    ! Visible Absorptance

OS:ComponentCost:LineItem,
  {68328893-fbbc-47b7-9779-fc9168c71248}, ! Handle
  90.1-2001 Nonres B4 Roof Metal Building, ! Name
  ,                                       ! Type
  Construction,                           ! Line Item Type
  90.1-2001 Nonres B4 Roof Metal Building, ! Item Name
  ,                                       ! Object End Use Key
  ,                                       ! Quantity {dimensionless}
  38.206,                                 ! Material Cost {$}
  CostPerArea;                            ! Material Cost Units

