
OS:Version,
  {763abed4-e834-451e-bc7d-5f2ce4be4f8f}, ! Handle
  0.9.3;                                  ! Version Identifier

OS:Material,
  {98e645e9-4846-4a59-9f11-13ea3353869b}, ! Handle
  1/2IN Gypsum,                           ! Name
  Smooth,                                 ! Roughness
  0.01271,                                ! Thickness {m}
  0.16,                                   ! Conductivity {W/m-K}
  784.9,                                  ! Density {kg/m3}
  830,                                    ! Specific Heat {J/kg-K}
  0.9,                                    ! Thermal Absorptance
  0.92,                                   ! Solar Absorptance
  0.92;                                   ! Visible Absorptance

OS:ComponentCost:LineItem,
  {1b42ee20-eaba-46d2-9799-f3df771d2a42}, ! Handle
  90.1-1999 Res B21 Ext Wall Wood-Framed and Other, ! Name
  ,                                       ! Type
  Construction,                           ! Line Item Type
  90.1-1999 Res B21 Ext Wall Wood-Framed and Other, ! Item Name
  ,                                       ! Object End Use Key
  ,                                       ! Quantity {dimensionless}
  80.638,                                 ! Material Cost {$}
  CostPerArea;                            ! Material Cost Units

OS:Material,
  {6f0d79df-21bf-4252-81a4-9fabf9224b9c}, ! Handle
  Wood Siding,                            ! Name
  MediumSmooth,                           ! Roughness
  0.01,                                   ! Thickness {m}
  0.11,                                   ! Conductivity {W/m-K}
  544.62,                                 ! Density {kg/m3}
  1210,                                   ! Specific Heat {J/kg-K}
  0.9,                                    ! Thermal Absorptance
  0.78,                                   ! Solar Absorptance
  0.78;                                   ! Visible Absorptance

OS:Material,
  {15d6b381-a45d-4d27-adde-ee61f309e446}, ! Handle
  Wall Insulation [13],                   ! Name
  MediumRough,                            ! Roughness
  0.140713,                               ! Thickness {m}
  0.045,                                  ! Conductivity {W/m-K}
  265,                                    ! Density {kg/m3}
  836.8,                                  ! Specific Heat {J/kg-K}
  0.9,                                    ! Thermal Absorptance
  0.7,                                    ! Solar Absorptance
  0.7;                                    ! Visible Absorptance

OS:Construction,
  {10b0c3d0-a453-4084-9b15-7adc157a33b0}, ! Handle
  90.1-1999 Res B21 Ext Wall Wood-Framed and Other, ! Name
  ,                                       ! Surface Rendering Name
  {6f0d79df-21bf-4252-81a4-9fabf9224b9c}, ! Layer 1
  {15d6b381-a45d-4d27-adde-ee61f309e446}, ! Layer 2
  {98e645e9-4846-4a59-9f11-13ea3353869b}; ! Layer 3

