
OS:Version,
  {bfdfd28b-a9f8-4b5d-8954-a70ae729c91c}, ! Handle
  0.9.3;                                  ! Version Identifier

OS:Construction,
  {2b325268-0533-45e0-9c70-cebd58e6431c}, ! Handle
  90.1-1999 Res B21 Ext Wall Wood-Framed and Other, ! Name
  ,                                       ! Surface Rendering Name
  {71851e6f-60b8-41fa-90ed-380dc0679350}, ! Layer 1
  {1513883d-1d5e-4680-9008-304e80e17ec5}, ! Layer 2
  {45eac4b6-5212-46c7-9625-21236b2b228a}; ! Layer 3

OS:Material,
  {71851e6f-60b8-41fa-90ed-380dc0679350}, ! Handle
  Wood Siding,                            ! Name
  MediumSmooth,                           ! Roughness
  0.01,                                   ! Thickness {m}
  0.11,                                   ! Conductivity {W/m-K}
  544.62,                                 ! Density {kg/m3}
  1210,                                   ! Specific Heat {J/kg-K}
  0.9,                                    ! Thermal Absorptance
  0.78,                                   ! Solar Absorptance
  0.78;                                   ! Visible Absorptance

OS:Material,
  {1513883d-1d5e-4680-9008-304e80e17ec5}, ! Handle
  Wall Insulation [13],                   ! Name
  MediumRough,                            ! Roughness
  0.140713,                               ! Thickness {m}
  0.045,                                  ! Conductivity {W/m-K}
  265,                                    ! Density {kg/m3}
  836.8,                                  ! Specific Heat {J/kg-K}
  0.9,                                    ! Thermal Absorptance
  0.7,                                    ! Solar Absorptance
  0.7;                                    ! Visible Absorptance

OS:Material,
  {45eac4b6-5212-46c7-9625-21236b2b228a}, ! Handle
  1/2IN Gypsum,                           ! Name
  Smooth,                                 ! Roughness
  0.01271,                                ! Thickness {m}
  0.16,                                   ! Conductivity {W/m-K}
  784.9,                                  ! Density {kg/m3}
  830,                                    ! Specific Heat {J/kg-K}
  0.9,                                    ! Thermal Absorptance
  0.92,                                   ! Solar Absorptance
  0.92;                                   ! Visible Absorptance

OS:ComponentCost:LineItem,
  {02f50a6d-b62e-4c6c-bc9e-54360d4520e0}, ! Handle
  90.1-1999 Res B21 Ext Wall Wood-Framed and Other, ! Name
  ,                                       ! Type
  Construction,                           ! Line Item Type
  90.1-1999 Res B21 Ext Wall Wood-Framed and Other, ! Item Name
  ,                                       ! Object End Use Key
  ,                                       ! Quantity {dimensionless}
  80.638,                                 ! Material Cost {$}
  CostPerArea;                            ! Material Cost Units

OS:ComponentData,
  {809c77f7-9f5e-4a21-b0b3-be15ecc7be9e}, ! Handle
  Component Data 1,                       ! Name
  {83d84998-7c6a-46b7-a38e-9c72c0a45624}, ! UUID
  {db1e29c0-80fd-491c-bf40-c50970582fb3}, ! Version UUID
  1363981256,                             ! Creation Timestamp
  1363981256,                             ! Version Timestamp
  {2b325268-0533-45e0-9c70-cebd58e6431c}, ! Name of Object 1
  {71851e6f-60b8-41fa-90ed-380dc0679350}, ! Name of Object 2
  {1513883d-1d5e-4680-9008-304e80e17ec5}, ! Name of Object 3
  {45eac4b6-5212-46c7-9625-21236b2b228a}, ! Name of Object 4
  {02f50a6d-b62e-4c6c-bc9e-54360d4520e0}; ! Name of Object 5

