
OS:Version,
  {b3fd7976-4967-4e5b-9fb2-08a5c445c08c}, ! Handle
  0.9.3;                                  ! Version Identifier

OS:Material,
  {de208c4b-2e84-47dc-a811-5c5119f83a62}, ! Handle
  GP01 1/2 GYPSUM,                        ! Name
  Smooth,                                 ! Roughness
  0.01271,                                ! Thickness {m}
  0.16,                                   ! Conductivity {W/m-K}
  800,                                    ! Density {kg/m3}
  1090,                                   ! Specific Heat {J/kg-K}
  0.9,                                    ! Thermal Absorptance
  0.7,                                    ! Solar Absorptance
  0.5;                                    ! Visible Absorptance

OS:ComponentCost:LineItem,
  {811598e4-e143-4a92-b13b-4c5d0d79bdd6}, ! Handle
  Title 24-2008 Nonres 6 Int Wall,        ! Name
  ,                                       ! Type
  Construction,                           ! Line Item Type
  Title 24-2008 Nonres 6 Int Wall,        ! Item Name
  ,                                       ! Object End Use Key
  ,                                       ! Quantity {dimensionless}
  0,                                      ! Material Cost {$}
  CostPerArea;                            ! Material Cost Units

OS:Material,
  {711c84bb-e8c7-4a00-b6d3-44e49e3d7df1}, ! Handle
  GP01 1/2 GYPSUM 1,                      ! Name
  Smooth,                                 ! Roughness
  0.01271,                                ! Thickness {m}
  0.16,                                   ! Conductivity {W/m-K}
  800,                                    ! Density {kg/m3}
  1090,                                   ! Specific Heat {J/kg-K}
  0.9,                                    ! Thermal Absorptance
  0.7,                                    ! Solar Absorptance
  0.5;                                    ! Visible Absorptance

OS:Construction,
  {02669989-9690-41b8-b45a-96e546e9b486}, ! Handle
  Title 24-2008 Nonres 6 Int Wall,        ! Name
  ,                                       ! Surface Rendering Name
  {de208c4b-2e84-47dc-a811-5c5119f83a62}, ! Layer 1
  {de208c4b-2e84-47dc-a811-5c5119f83a62}; ! Layer 2

