
OS:Version,
  {e5d70b2d-96bc-469f-90e7-b32615e7a9a9}, ! Handle
  0.9.3;                                  ! Version Identifier

OS:Material,
  {21ee5c89-2a14-44ee-b405-fae4cc0d7ef3}, ! Handle
  1/2IN Gypsum,                           ! Name
  Smooth,                                 ! Roughness
  0.01271,                                ! Thickness {m}
  0.16,                                   ! Conductivity {W/m-K}
  784.9,                                  ! Density {kg/m3}
  830,                                    ! Specific Heat {J/kg-K}
  0.9,                                    ! Thermal Absorptance
  0.92,                                   ! Solar Absorptance
  0.92;                                   ! Visible Absorptance

OS:Construction,
  {8bca559c-d501-4d24-8c34-c3ffd4108463}, ! Handle
  90.1 Constructions Ext Wall Steel-Framed R-13.0, ! Name
  ,                                       ! Surface Rendering Name
  {a2e23412-95af-4b3a-9d45-8a417d172bac}, ! Layer 1
  {f5a873c6-4b4e-422f-ac3b-a50af4bf012a}, ! Layer 2
  {21ee5c89-2a14-44ee-b405-fae4cc0d7ef3}; ! Layer 3

OS:Material:NoMass,
  {a2e23412-95af-4b3a-9d45-8a417d172bac}, ! Handle
  MAT-SHEATH,                             ! Name
  Rough,                                  ! Roughness
  0.36256,                                ! Thermal Resistance {m2-K/W}
  0.9,                                    ! Thermal Absorptance
  0.7,                                    ! Solar Absorptance
  0.7;                                    ! Visible Absorptance

OS:Material,
  {f5a873c6-4b4e-422f-ac3b-a50af4bf012a}, ! Handle
  Wall Insulation [100],                  ! Name
  MediumRough,                            ! Roughness
  0.0372207,                              ! Thickness {m}
  0.045,                                  ! Conductivity {W/m-K}
  265,                                    ! Density {kg/m3}
  836.8,                                  ! Specific Heat {J/kg-K}
  0.9,                                    ! Thermal Absorptance
  0.7,                                    ! Solar Absorptance
  0.7;                                    ! Visible Absorptance

OS:ComponentCost:LineItem,
  {ee70378f-21d4-4b42-b9f7-3383b30eff9b}, ! Handle
  90.1 Constructions Ext Wall Steel-Framed R-13.0, ! Name
  ,                                       ! Type
  Construction,                           ! Line Item Type
  90.1 Constructions Ext Wall Steel-Framed R-13.0, ! Item Name
  ,                                       ! Object End Use Key
  ,                                       ! Quantity {dimensionless}
  87.057,                                 ! Material Cost {$}
  CostPerArea;                            ! Material Cost Units

