
OS:Version,
  {4a4f8c9b-8583-45d8-8789-048c7baed47d}, ! Handle
  0.9.3;                                  ! Version Identifier

OS:Material,
  {8d501148-6fbd-4edd-aae3-5be67f28a9af}, ! Handle
  Metal Siding,                           ! Name
  Smooth,                                 ! Roughness
  0.0015,                                 ! Thickness {m}
  44.96,                                  ! Conductivity {W/m-K}
  7688.86,                                ! Density {kg/m3}
  410,                                    ! Specific Heat {J/kg-K}
  0.9,                                    ! Thermal Absorptance
  0.2,                                    ! Solar Absorptance
  0.2;                                    ! Visible Absorptance

OS:Material,
  {7bca6a61-e92c-4caf-9e24-9ee387cdd361}, ! Handle
  Wall Insulation,                        ! Name
  MediumRough,                            ! Roughness
  0.0598725,                              ! Thickness {m}
  0.045,                                  ! Conductivity {W/m-K}
  265,                                    ! Density {kg/m3}
  836.8,                                  ! Specific Heat {J/kg-K}
  0.9,                                    ! Thermal Absorptance
  0.7,                                    ! Solar Absorptance
  0.7;                                    ! Visible Absorptance

OS:Material,
  {869ee079-9c99-4f2c-a19b-c2e4fb44215c}, ! Handle
  1/2IN Gypsum,                           ! Name
  Smooth,                                 ! Roughness
  0.01271,                                ! Thickness {m}
  0.16,                                   ! Conductivity {W/m-K}
  784.9,                                  ! Density {kg/m3}
  830,                                    ! Specific Heat {J/kg-K}
  0.9,                                    ! Thermal Absorptance
  0.92,                                   ! Solar Absorptance
  0.92;                                   ! Visible Absorptance

OS:Construction,
  {d1558d27-29b9-40ad-91a0-d6f275d35098}, ! Handle
  AEDG-SmOffice 2A Ext Wall Metal Building, ! Name
  ,                                       ! Surface Rendering Name
  {8d501148-6fbd-4edd-aae3-5be67f28a9af}, ! Layer 1
  {7bca6a61-e92c-4caf-9e24-9ee387cdd361}, ! Layer 2
  {869ee079-9c99-4f2c-a19b-c2e4fb44215c}; ! Layer 3

OS:ComponentCost:LineItem,
  {bedabd49-28c2-49e2-9993-28ea48fbef2e}, ! Handle
  AEDG-SmOffice 2A Ext Wall Metal Building, ! Name
  ,                                       ! Type
  Construction,                           ! Line Item Type
  AEDG-SmOffice 2A Ext Wall Metal Building, ! Item Name
  ,                                       ! Object End Use Key
  ,                                       ! Quantity {dimensionless}
  98.78,                                  ! Material Cost {$}
  CostPerArea;                            ! Material Cost Units

