
OS:Version,
  {edec466b-8a2e-44dc-addd-9e7fbf5b2fca}, ! Handle
  0.9.3;                                  ! Version Identifier

OS:Material,
  {5689305d-6a78-451d-b4d1-f7d384e35605}, ! Handle
  GP01 1/2 GYPSUM,                        ! Name
  Smooth,                                 ! Roughness
  0.01271,                                ! Thickness {m}
  0.16,                                   ! Conductivity {W/m-K}
  800,                                    ! Density {kg/m3}
  1090,                                   ! Specific Heat {J/kg-K}
  0.9,                                    ! Thermal Absorptance
  0.7,                                    ! Solar Absorptance
  0.5;                                    ! Visible Absorptance

OS:ComponentCost:LineItem,
  {295e0ead-89af-4a1f-bd0d-4d7c57c041e8}, ! Handle
  90.1-1999 Nonres B22 Int Wall,          ! Name
  ,                                       ! Type
  Construction,                           ! Line Item Type
  90.1-1999 Nonres B22 Int Wall,          ! Item Name
  ,                                       ! Object End Use Key
  ,                                       ! Quantity {dimensionless}
  0,                                      ! Material Cost {$}
  CostPerArea;                            ! Material Cost Units

OS:Construction,
  {36a4ac02-250e-42e4-aa1d-b8f67d75914a}, ! Handle
  90.1-1999 Nonres B22 Int Wall,          ! Name
  ,                                       ! Surface Rendering Name
  {5689305d-6a78-451d-b4d1-f7d384e35605}, ! Layer 1
  {5689305d-6a78-451d-b4d1-f7d384e35605}; ! Layer 2

OS:Material,
  {46a7e6ee-a568-4576-81cd-9b6d9be3dda4}, ! Handle
  GP01 1/2 GYPSUM 1,                      ! Name
  Smooth,                                 ! Roughness
  0.01271,                                ! Thickness {m}
  0.16,                                   ! Conductivity {W/m-K}
  800,                                    ! Density {kg/m3}
  1090,                                   ! Specific Heat {J/kg-K}
  0.9,                                    ! Thermal Absorptance
  0.7,                                    ! Solar Absorptance
  0.5;                                    ! Visible Absorptance

