
OS:Version,
  {b01c8c69-6069-4e90-b8e0-3ecd7b55c498}, ! Handle
  0.9.3;                                  ! Version Identifier

OS:WindowMaterial:Glazing,
  {f8410ee2-7f8a-409f-9e0d-260494b0b308}, ! Handle
  Theoretical Glass [484],                ! Name
  SpectralAverage,                        ! Optical Data Type
  ,                                       ! Window Glass Spectral Data Set Name
  0.003,                                  ! Thickness {m}
  0.267106,                               ! Solar Transmittance at Normal Incidence
  0.682894,                               ! Front Side Solar Reflectance at Normal Incidence
  0.682894,                               ! Back Side Solar Reflectance at Normal Incidence
  0.450308,                               ! Visible Transmittance at Normal Incidence
  0.499692,                               ! Front Side Visible Reflectance at Normal Incidence
  0.499692,                               ! Back Side Visible Reflectance at Normal Incidence
  0,                                      ! Infrared Transmittance at Normal Incidence
  0.9,                                    ! Front Side Infrared Hemispherical Emissivity
  0.9,                                    ! Back Side Infrared Hemispherical Emissivity
  0.00776583;                             ! Conductivity {W/m-K}

OS:ComponentCost:LineItem,
  {3efedce8-bda8-4789-812b-07186f1f3c76}, ! Handle
  90.1 Windows Window Fixed 2643 Vnl-Hpt-Ins-ClrSue, ! Name
  ,                                       ! Type
  Construction,                           ! Line Item Type
  90.1 Windows Window Fixed 2643 Vnl-Hpt-Ins-ClrSue, ! Item Name
  ,                                       ! Object End Use Key
  ,                                       ! Quantity {dimensionless}
  0,                                      ! Material Cost {$}
  CostPerArea;                            ! Material Cost Units

OS:Construction,
  {53434f90-18f1-4506-9b99-aa491f777744}, ! Handle
  90.1 Windows Window Fixed 2643 Vnl-Hpt-Ins-ClrSue, ! Name
  ,                                       ! Surface Rendering Name
  {f8410ee2-7f8a-409f-9e0d-260494b0b308}; ! Layer 1

