
OS:Version,
  {c4a0f995-af72-4e5f-b80a-8fde99f6de15}, ! Handle
  0.9.3;                                  ! Version Identifier

OS:Construction,
  {3786ebf0-2411-483e-9a43-45c8b3c03525}, ! Handle
  AEDG-SmOffice 5B Ext Wall Mass,         ! Name
  ,                                       ! Surface Rendering Name
  {94982d72-173b-4c67-aaf9-0a008c454e7a}, ! Layer 1
  {336e783b-b63e-463e-9652-98a65a1590c0}, ! Layer 2
  {c057092f-dfc9-4ad4-9dc1-9e425efce926}, ! Layer 3
  {856990da-d83b-4e28-97cf-0d40bdb52d7f}; ! Layer 4

OS:Material,
  {94982d72-173b-4c67-aaf9-0a008c454e7a}, ! Handle
  1IN Stucco,                             ! Name
  Smooth,                                 ! Roughness
  0.0253,                                 ! Thickness {m}
  0.6918,                                 ! Conductivity {W/m-K}
  1858,                                   ! Density {kg/m3}
  837,                                    ! Specific Heat {J/kg-K}
  0.9,                                    ! Thermal Absorptance
  0.92,                                   ! Solar Absorptance
  0.92;                                   ! Visible Absorptance

OS:Material,
  {336e783b-b63e-463e-9652-98a65a1590c0}, ! Handle
  8IN Concrete HW,                        ! Name
  MediumRough,                            ! Roughness
  0.2033,                                 ! Thickness {m}
  1.7296,                                 ! Conductivity {W/m-K}
  2243,                                   ! Density {kg/m3}
  837,                                    ! Specific Heat {J/kg-K}
  0.9,                                    ! Thermal Absorptance
  0.65,                                   ! Solar Absorptance
  0.65;                                   ! Visible Absorptance

OS:Material,
  {c057092f-dfc9-4ad4-9dc1-9e425efce926}, ! Handle
  Wall Insulation [8],                    ! Name
  MediumRough,                            ! Roughness
  0.067929,                               ! Thickness {m}
  0.0432,                                 ! Conductivity {W/m-K}
  91,                                     ! Density {kg/m3}
  837,                                    ! Specific Heat {J/kg-K}
  0.9,                                    ! Thermal Absorptance
  0.5,                                    ! Solar Absorptance
  0.5;                                    ! Visible Absorptance

OS:Material,
  {856990da-d83b-4e28-97cf-0d40bdb52d7f}, ! Handle
  1/2IN Gypsum,                           ! Name
  Smooth,                                 ! Roughness
  0.01271,                                ! Thickness {m}
  0.16,                                   ! Conductivity {W/m-K}
  784.9,                                  ! Density {kg/m3}
  830,                                    ! Specific Heat {J/kg-K}
  0.9,                                    ! Thermal Absorptance
  0.92,                                   ! Solar Absorptance
  0.92;                                   ! Visible Absorptance

OS:ComponentCost:LineItem,
  {de6a8254-b9ac-4304-8d10-dc16104b8e0a}, ! Handle
  AEDG-SmOffice 5B Ext Wall Mass,         ! Name
  ,                                       ! Type
  Construction,                           ! Line Item Type
  AEDG-SmOffice 5B Ext Wall Mass,         ! Item Name
  ,                                       ! Object End Use Key
  ,                                       ! Quantity {dimensionless}
  65.826,                                 ! Material Cost {$}
  CostPerArea;                            ! Material Cost Units

OS:ComponentData,
  {73a5125e-3fbe-4b9b-bddd-481036672db0}, ! Handle
  Component Data 1,                       ! Name
  {6dd0464d-5efd-43f2-bf26-bf850d0da873}, ! UUID
  {e97e08ec-4145-4568-a342-c504309a3176}, ! Version UUID
  1363981954,                             ! Creation Timestamp
  1363981954,                             ! Version Timestamp
  {3786ebf0-2411-483e-9a43-45c8b3c03525}, ! Name of Object 1
  {94982d72-173b-4c67-aaf9-0a008c454e7a}, ! Name of Object 2
  {336e783b-b63e-463e-9652-98a65a1590c0}, ! Name of Object 3
  {c057092f-dfc9-4ad4-9dc1-9e425efce926}, ! Name of Object 4
  {856990da-d83b-4e28-97cf-0d40bdb52d7f}, ! Name of Object 5
  {de6a8254-b9ac-4304-8d10-dc16104b8e0a}; ! Name of Object 6

