
OS:Version,
  {5c1c891b-fd8e-479d-9378-8a4b86b18e17}, ! Handle
  0.9.3;                                  ! Version Identifier

OS:ComponentCost:LineItem,
  {5a2f3124-a067-4ece-b69a-bd5f0ae6c088}, ! Handle
  AEDG-SmOffice 5B Ext Wall Mass,         ! Name
  ,                                       ! Type
  Construction,                           ! Line Item Type
  AEDG-SmOffice 5B Ext Wall Mass,         ! Item Name
  ,                                       ! Object End Use Key
  ,                                       ! Quantity {dimensionless}
  65.826,                                 ! Material Cost {$}
  CostPerArea;                            ! Material Cost Units

OS:Material,
  {c4a1f221-a010-46b2-93b6-51c85d7b114d}, ! Handle
  8IN Concrete HW,                        ! Name
  MediumRough,                            ! Roughness
  0.2033,                                 ! Thickness {m}
  1.7296,                                 ! Conductivity {W/m-K}
  2243,                                   ! Density {kg/m3}
  837,                                    ! Specific Heat {J/kg-K}
  0.9,                                    ! Thermal Absorptance
  0.65,                                   ! Solar Absorptance
  0.65;                                   ! Visible Absorptance

OS:Material,
  {484b5a09-7959-4727-8c6f-50f81d873474}, ! Handle
  1IN Stucco,                             ! Name
  Smooth,                                 ! Roughness
  0.0253,                                 ! Thickness {m}
  0.6918,                                 ! Conductivity {W/m-K}
  1858,                                   ! Density {kg/m3}
  837,                                    ! Specific Heat {J/kg-K}
  0.9,                                    ! Thermal Absorptance
  0.92,                                   ! Solar Absorptance
  0.92;                                   ! Visible Absorptance

OS:Material,
  {e56d3142-3c5c-4188-aad4-a501c47eb74c}, ! Handle
  1/2IN Gypsum,                           ! Name
  Smooth,                                 ! Roughness
  0.01271,                                ! Thickness {m}
  0.16,                                   ! Conductivity {W/m-K}
  784.9,                                  ! Density {kg/m3}
  830,                                    ! Specific Heat {J/kg-K}
  0.9,                                    ! Thermal Absorptance
  0.92,                                   ! Solar Absorptance
  0.92;                                   ! Visible Absorptance

OS:Construction,
  {bd3f3e47-a224-4341-a9e0-9d2691ef840d}, ! Handle
  AEDG-SmOffice 5B Ext Wall Mass,         ! Name
  ,                                       ! Surface Rendering Name
  {484b5a09-7959-4727-8c6f-50f81d873474}, ! Layer 1
  {c4a1f221-a010-46b2-93b6-51c85d7b114d}, ! Layer 2
  {f6b743a2-619b-48cb-9fa4-c2d0418d2a1e}, ! Layer 3
  {e56d3142-3c5c-4188-aad4-a501c47eb74c}; ! Layer 4

OS:Material,
  {f6b743a2-619b-48cb-9fa4-c2d0418d2a1e}, ! Handle
  Wall Insulation [8],                    ! Name
  MediumRough,                            ! Roughness
  0.067929,                               ! Thickness {m}
  0.0432,                                 ! Conductivity {W/m-K}
  91,                                     ! Density {kg/m3}
  837,                                    ! Specific Heat {J/kg-K}
  0.9,                                    ! Thermal Absorptance
  0.5,                                    ! Solar Absorptance
  0.5;                                    ! Visible Absorptance

