
OS:Version,
  {1c62905d-98a8-4e8c-873c-ad59dce601b0}, ! Handle
  0.9.3;                                  ! Version Identifier

OS:Construction,
  {4563a95a-b5e4-4fcf-b312-8b254a8d3622}, ! Handle
  AEDG K12 Nonres 3A Ext Slab Unheated - 8in Slab with Carpet, ! Name
  ,                                       ! Surface Rendering Name
  {701a4e4d-0f1e-494e-83b4-ffbb6c8a2993}, ! Layer 1
  {7e01802a-3873-4b82-80f0-44250ae5be02}; ! Layer 2

OS:Material,
  {701a4e4d-0f1e-494e-83b4-ffbb6c8a2993}, ! Handle
  MAT-CC05 8 HW CONCRETE,                 ! Name
  Rough,                                  ! Roughness
  0.20321,                                ! Thickness {m}
  1.311,                                  ! Conductivity {W/m-K}
  2240,                                   ! Density {kg/m3}
  836.8,                                  ! Specific Heat {J/kg-K}
  0.9,                                    ! Thermal Absorptance
  0.7,                                    ! Solar Absorptance
  0.7;                                    ! Visible Absorptance

OS:Material:NoMass,
  {7e01802a-3873-4b82-80f0-44250ae5be02}, ! Handle
  CP02 CARPET PAD,                        ! Name
  VeryRough,                              ! Roughness
  0.21648,                                ! Thermal Resistance {m2-K/W}
  0.9,                                    ! Thermal Absorptance
  0.7,                                    ! Solar Absorptance
  0.8;                                    ! Visible Absorptance

OS:ComponentCost:LineItem,
  {d8ab3a39-23bb-4273-b6bc-9c87955ef005}, ! Handle
  AEDG K12 Nonres 3A Ext Slab Unheated - 8in Slab with Carpet, ! Name
  ,                                       ! Type
  Construction,                           ! Line Item Type
  AEDG K12 Nonres 3A Ext Slab Unheated - 8in Slab with Carpet, ! Item Name
  ,                                       ! Object End Use Key
  ,                                       ! Quantity {dimensionless}
  0,                                      ! Material Cost {$}
  CostPerArea;                            ! Material Cost Units

