
OS:Version,
  {a7fe6f12-9309-489a-b192-1f6977570ae5}, ! Handle
  0.9.3;                                  ! Version Identifier

OS:Construction,
  {949bece0-ef1b-4683-b9ac-c7cbedf0517c}, ! Handle
  90.1-2001 Res B7 Skylight without Curb, ! Name
  ,                                       ! Surface Rendering Name
  {27d66c02-6344-48d6-8ab5-3a02aa15a0e4}; ! Layer 1

OS:WindowMaterial:Glazing,
  {27d66c02-6344-48d6-8ab5-3a02aa15a0e4}, ! Handle
  Theoretical Glass [76],                 ! Name
  SpectralAverage,                        ! Optical Data Type
  ,                                       ! Window Glass Spectral Data Set Name
  0.003,                                  ! Thickness {m}
  0.376276,                               ! Solar Transmittance at Normal Incidence
  0.573724,                               ! Front Side Solar Reflectance at Normal Incidence
  0.573724,                               ! Back Side Solar Reflectance at Normal Incidence
  0.41104,                                ! Visible Transmittance at Normal Incidence
  0.53896,                                ! Front Side Visible Reflectance at Normal Incidence
  0.53896,                                ! Back Side Visible Reflectance at Normal Incidence
  0,                                      ! Infrared Transmittance at Normal Incidence
  0.999,                                  ! Front Side Infrared Hemispherical Emissivity
  0.999,                                  ! Back Side Infrared Hemispherical Emissivity
  72.7123;                                ! Conductivity {W/m-K}

OS:ComponentCost:LineItem,
  {af88e23e-fe3a-4608-9d51-fdaf5233d9bc}, ! Handle
  90.1-2001 Res B7 Skylight without Curb, ! Name
  ,                                       ! Type
  Construction,                           ! Line Item Type
  90.1-2001 Res B7 Skylight without Curb, ! Item Name
  ,                                       ! Object End Use Key
  ,                                       ! Quantity {dimensionless}
  527.515,                                ! Material Cost {$}
  CostPerArea;                            ! Material Cost Units

