
OS:Version,
  {955b1bb7-c916-41cd-92f4-7eddec4414cd}, ! Handle
  0.9.3;                                  ! Version Identifier

OS:Construction,
  {070be71a-984a-4f58-a165-c1a7f74b4efe}, ! Handle
  90.1-2001 Res B7 Skylight without Curb, ! Name
  ,                                       ! Surface Rendering Name
  {509af11a-8f1d-43b0-8655-8faef078e623}; ! Layer 1

OS:WindowMaterial:Glazing,
  {509af11a-8f1d-43b0-8655-8faef078e623}, ! Handle
  Theoretical Glass [76],                 ! Name
  SpectralAverage,                        ! Optical Data Type
  ,                                       ! Window Glass Spectral Data Set Name
  0.003,                                  ! Thickness {m}
  0.376276,                               ! Solar Transmittance at Normal Incidence
  0.573724,                               ! Front Side Solar Reflectance at Normal Incidence
  0.573724,                               ! Back Side Solar Reflectance at Normal Incidence
  0.41104,                                ! Visible Transmittance at Normal Incidence
  0.53896,                                ! Front Side Visible Reflectance at Normal Incidence
  0.53896,                                ! Back Side Visible Reflectance at Normal Incidence
  0,                                      ! Infrared Transmittance at Normal Incidence
  0.999,                                  ! Front Side Infrared Hemispherical Emissivity
  0.999,                                  ! Back Side Infrared Hemispherical Emissivity
  72.7123;                                ! Conductivity {W/m-K}

OS:ComponentCost:LineItem,
  {e0ece9a0-55b0-489b-ab0c-a78cef2ef6a7}, ! Handle
  90.1-2001 Res B7 Skylight without Curb, ! Name
  ,                                       ! Type
  Construction,                           ! Line Item Type
  90.1-2001 Res B7 Skylight without Curb, ! Item Name
  ,                                       ! Object End Use Key
  ,                                       ! Quantity {dimensionless}
  527.515,                                ! Material Cost {$}
  CostPerArea;                            ! Material Cost Units

OS:ComponentData,
  {ca9b0288-02b9-4e90-9370-198440359887}, ! Handle
  Component Data 1,                       ! Name
  {8518e87b-9c34-49de-8993-be5eaa2ac73e}, ! UUID
  {1f113416-cc11-4e79-95ae-c9f8cc4103a3}, ! Version UUID
  1363981487,                             ! Creation Timestamp
  1363981487,                             ! Version Timestamp
  {070be71a-984a-4f58-a165-c1a7f74b4efe}, ! Name of Object 1
  {509af11a-8f1d-43b0-8655-8faef078e623}, ! Name of Object 2
  {e0ece9a0-55b0-489b-ab0c-a78cef2ef6a7}; ! Name of Object 3

