
OS:Version,
  {5c724c5f-438f-4033-b27a-0fbbb6a484f1}, ! Handle
  0.9.3;                                  ! Version Identifier

OS:Material:NoMass,
  {cf460e35-cea0-4330-9012-27e98a509213}, ! Handle
  CP02 CARPET PAD,                        ! Name
  VeryRough,                              ! Roughness
  0.21648,                                ! Thermal Resistance {m2-K/W}
  0.9,                                    ! Thermal Absorptance
  0.7,                                    ! Solar Absorptance
  0.8;                                    ! Visible Absorptance

OS:ComponentCost:LineItem,
  {63d23bf4-4017-42c2-a140-df2f114d70b6}, ! Handle
  189.1-2009 Nonres 4B Ext Slab Unheated - 8in Slab with Carpet, ! Name
  ,                                       ! Type
  Construction,                           ! Line Item Type
  189.1-2009 Nonres 4B Ext Slab Unheated - 8in Slab with Carpet, ! Item Name
  ,                                       ! Object End Use Key
  ,                                       ! Quantity {dimensionless}
  45.52,                                  ! Material Cost {$}
  CostPerArea;                            ! Material Cost Units

OS:Construction,
  {0bb7195d-c6c0-416f-b704-1979785fe963}, ! Handle
  189.1-2009 Nonres 4B Ext Slab Unheated - 8in Slab with Carpet, ! Name
  ,                                       ! Surface Rendering Name
  {d94bcdc4-9b77-48f1-bdb4-28804e79b1bc}, ! Layer 1
  {cf460e35-cea0-4330-9012-27e98a509213}; ! Layer 2

OS:Material,
  {d94bcdc4-9b77-48f1-bdb4-28804e79b1bc}, ! Handle
  MAT-CC05 8 HW CONCRETE,                 ! Name
  Rough,                                  ! Roughness
  0.20321,                                ! Thickness {m}
  1.311,                                  ! Conductivity {W/m-K}
  2240,                                   ! Density {kg/m3}
  836.8,                                  ! Specific Heat {J/kg-K}
  0.9,                                    ! Thermal Absorptance
  0.7,                                    ! Solar Absorptance
  0.7;                                    ! Visible Absorptance

