
OS:Version,
  {e8b30c69-31be-443c-8fa1-d283d806e1cf}, ! Handle
  0.9.3;                                  ! Version Identifier

OS:Construction,
  {6fa80cf6-529a-4a1a-b8f5-85efa9c41ecd}, ! Handle
  90.1-1999 Nonres B3 Roof Metal Building, ! Name
  ,                                       ! Surface Rendering Name
  {034e73bd-4996-43b9-a4bc-d7b559dcf84e}, ! Layer 1
  {e2bb515d-bacf-41a7-9bca-4b5f58757e4c}; ! Layer 2

OS:Material,
  {034e73bd-4996-43b9-a4bc-d7b559dcf84e}, ! Handle
  Metal Roofing,                          ! Name
  MediumSmooth,                           ! Roughness
  0.001524,                               ! Thickness {m}
  45.006,                                 ! Conductivity {W/m-K}
  7680,                                   ! Density {kg/m3}
  418.4,                                  ! Specific Heat {J/kg-K}
  0.9,                                    ! Thermal Absorptance
  0.7,                                    ! Solar Absorptance
  0.3;                                    ! Visible Absorptance

OS:Material,
  {e2bb515d-bacf-41a7-9bca-4b5f58757e4c}, ! Handle
  Roof Insulation [1],                    ! Name
  MediumRough,                            ! Roughness
  0.123533,                               ! Thickness {m}
  0.049,                                  ! Conductivity {W/m-K}
  265,                                    ! Density {kg/m3}
  836.8,                                  ! Specific Heat {J/kg-K}
  0.9,                                    ! Thermal Absorptance
  0.7,                                    ! Solar Absorptance
  0.7;                                    ! Visible Absorptance

OS:ComponentCost:LineItem,
  {ae6dc780-41cc-439a-8493-0761c977ec9c}, ! Handle
  90.1-1999 Nonres B3 Roof Metal Building, ! Name
  ,                                       ! Type
  Construction,                           ! Line Item Type
  90.1-1999 Nonres B3 Roof Metal Building, ! Item Name
  ,                                       ! Object End Use Key
  ,                                       ! Quantity {dimensionless}
  38.206,                                 ! Material Cost {$}
  CostPerArea;                            ! Material Cost Units

