
OS:Version,
  {16355ef6-1881-4a7a-bb6c-637b938f817e}, ! Handle
  0.9.3;                                  ! Version Identifier

OS:Construction,
  {03de7aa0-e3fe-48dd-97a3-b500a80863f4}, ! Handle
  90.1-1999 Nonres B3 Roof Metal Building, ! Name
  ,                                       ! Surface Rendering Name
  {74170188-d7b8-4e25-8403-88b121207e60}, ! Layer 1
  {2afdd125-89a2-4664-bbe3-7fa2be46013c}; ! Layer 2

OS:Material,
  {74170188-d7b8-4e25-8403-88b121207e60}, ! Handle
  Metal Roofing,                          ! Name
  MediumSmooth,                           ! Roughness
  0.001524,                               ! Thickness {m}
  45.006,                                 ! Conductivity {W/m-K}
  7680,                                   ! Density {kg/m3}
  418.4,                                  ! Specific Heat {J/kg-K}
  0.9,                                    ! Thermal Absorptance
  0.7,                                    ! Solar Absorptance
  0.3;                                    ! Visible Absorptance

OS:Material,
  {2afdd125-89a2-4664-bbe3-7fa2be46013c}, ! Handle
  Roof Insulation [1],                    ! Name
  MediumRough,                            ! Roughness
  0.123533,                               ! Thickness {m}
  0.049,                                  ! Conductivity {W/m-K}
  265,                                    ! Density {kg/m3}
  836.8,                                  ! Specific Heat {J/kg-K}
  0.9,                                    ! Thermal Absorptance
  0.7,                                    ! Solar Absorptance
  0.7;                                    ! Visible Absorptance

OS:ComponentCost:LineItem,
  {25ee2a0a-7285-4544-9133-3dc779a3204a}, ! Handle
  90.1-1999 Nonres B3 Roof Metal Building, ! Name
  ,                                       ! Type
  Construction,                           ! Line Item Type
  90.1-1999 Nonres B3 Roof Metal Building, ! Item Name
  ,                                       ! Object End Use Key
  ,                                       ! Quantity {dimensionless}
  38.206,                                 ! Material Cost {$}
  CostPerArea;                            ! Material Cost Units

OS:ComponentData,
  {3abad88e-df4e-42e2-94a8-1fb46e6fda21}, ! Handle
  Component Data 1,                       ! Name
  {c14758bb-3a8f-4bd4-863d-d27d44e3ed63}, ! UUID
  {eb8d85fa-8779-4945-93ee-be0d4b1f1911}, ! Version UUID
  1363981046,                             ! Creation Timestamp
  1363981046,                             ! Version Timestamp
  {03de7aa0-e3fe-48dd-97a3-b500a80863f4}, ! Name of Object 1
  {74170188-d7b8-4e25-8403-88b121207e60}, ! Name of Object 2
  {2afdd125-89a2-4664-bbe3-7fa2be46013c}, ! Name of Object 3
  {25ee2a0a-7285-4544-9133-3dc779a3204a}; ! Name of Object 4

