
OS:Version,
  {91fd90c3-c5c0-4c13-9e19-c209e146b2c0}, ! Handle
  0.9.3;                                  ! Version Identifier

OS:ComponentCost:LineItem,
  {881e10c4-785b-4fc5-8e2c-757dffa69ffd}, ! Handle
  90.1-2001 Res B22 Int Wall,             ! Name
  ,                                       ! Type
  Construction,                           ! Line Item Type
  90.1-2001 Res B22 Int Wall,             ! Item Name
  ,                                       ! Object End Use Key
  ,                                       ! Quantity {dimensionless}
  0,                                      ! Material Cost {$}
  CostPerArea;                            ! Material Cost Units

OS:Construction,
  {a322d097-1f12-4558-a54b-a8b917b62fb4}, ! Handle
  90.1-2001 Res B22 Int Wall,             ! Name
  ,                                       ! Surface Rendering Name
  {65cfc887-d1c9-41ec-9b83-faffdcbb67a9}, ! Layer 1
  {65cfc887-d1c9-41ec-9b83-faffdcbb67a9}; ! Layer 2

OS:Material,
  {65cfc887-d1c9-41ec-9b83-faffdcbb67a9}, ! Handle
  GP01 1/2 GYPSUM,                        ! Name
  Smooth,                                 ! Roughness
  0.01271,                                ! Thickness {m}
  0.16,                                   ! Conductivity {W/m-K}
  800,                                    ! Density {kg/m3}
  1090,                                   ! Specific Heat {J/kg-K}
  0.9,                                    ! Thermal Absorptance
  0.7,                                    ! Solar Absorptance
  0.5;                                    ! Visible Absorptance

OS:Material,
  {177b8e1c-17b0-4316-86ab-f04432ebc015}, ! Handle
  GP01 1/2 GYPSUM 1,                      ! Name
  Smooth,                                 ! Roughness
  0.01271,                                ! Thickness {m}
  0.16,                                   ! Conductivity {W/m-K}
  800,                                    ! Density {kg/m3}
  1090,                                   ! Specific Heat {J/kg-K}
  0.9,                                    ! Thermal Absorptance
  0.7,                                    ! Solar Absorptance
  0.5;                                    ! Visible Absorptance

