
OS:Version,
  {ee594065-4129-46dc-88a2-010c5f9e52d3}, ! Handle
  0.9.3;                                  ! Version Identifier

OS:Construction,
  {1db64c1a-1d43-4133-8c13-8763f622b6f4}, ! Handle
  90.1-2001 Res B22 Int Wall,             ! Name
  ,                                       ! Surface Rendering Name
  {22a03fc7-aab5-4c07-bd73-cfa33effda6a}, ! Layer 1
  {22a03fc7-aab5-4c07-bd73-cfa33effda6a}; ! Layer 2

OS:Material,
  {22a03fc7-aab5-4c07-bd73-cfa33effda6a}, ! Handle
  GP01 1/2 GYPSUM,                        ! Name
  Smooth,                                 ! Roughness
  0.01271,                                ! Thickness {m}
  0.16,                                   ! Conductivity {W/m-K}
  800,                                    ! Density {kg/m3}
  1090,                                   ! Specific Heat {J/kg-K}
  0.9,                                    ! Thermal Absorptance
  0.7,                                    ! Solar Absorptance
  0.5;                                    ! Visible Absorptance

OS:ComponentCost:LineItem,
  {0b5429da-de81-4fba-b9bb-b047f25c7dd8}, ! Handle
  90.1-2001 Res B22 Int Wall,             ! Name
  ,                                       ! Type
  Construction,                           ! Line Item Type
  90.1-2001 Res B22 Int Wall,             ! Item Name
  ,                                       ! Object End Use Key
  ,                                       ! Quantity {dimensionless}
  0,                                      ! Material Cost {$}
  CostPerArea;                            ! Material Cost Units

OS:ComponentData,
  {93578905-7709-4ac1-951d-e59fd671d529}, ! Handle
  Component Data 1,                       ! Name
  {522a16c6-b428-42e5-bd57-88cd709e80c6}, ! UUID
  {93e4062e-724b-4dbc-be39-2a5a731cf093}, ! Version UUID
  1363981587,                             ! Creation Timestamp
  1363981587,                             ! Version Timestamp
  {1db64c1a-1d43-4133-8c13-8763f622b6f4}, ! Name of Object 1
  {22a03fc7-aab5-4c07-bd73-cfa33effda6a}, ! Name of Object 2
  {0b5429da-de81-4fba-b9bb-b047f25c7dd8}; ! Name of Object 3

