
OS:Version,
  {6a59934c-2001-4d31-bbfd-2f96d5bca13a}, !- Handle
  1.1.0;                                  !- Version Identifier

OS:Construction,
  {9f460575-7678-4be2-8f94-be9224034ab7}, !- Handle
  Trp LoE (e5=.1) Clr 3mm/13mm Arg,       !- Name
  ,                                       !- Surface Rendering Name
  {2afe9b96-69ef-448c-a64e-61340a0f5e4a}, !- Layer 1
  {793a6116-2562-4c9f-aa68-0b243938e2f4}, !- Layer 2
  {2afe9b96-69ef-448c-a64e-61340a0f5e4a}, !- Layer 3
  {793a6116-2562-4c9f-aa68-0b243938e2f4}, !- Layer 4
  {93368581-0b8d-4a5f-80fa-a55a3c920c2e}; !- Layer 5

OS:WindowMaterial:Glazing,
  {2afe9b96-69ef-448c-a64e-61340a0f5e4a}, !- Handle
  CLEAR 3MM,                              !- Name
  SpectralAverage,                        !- Optical Data Type
  ,                                       !- Window Glass Spectral Data Set Name
  0.003,                                  !- Thickness {m}
  0.837,                                  !- Solar Transmittance at Normal Incidence
  0.075,                                  !- Front Side Solar Reflectance at Normal Incidence
  0.075,                                  !- Back Side Solar Reflectance at Normal Incidence
  0.898,                                  !- Visible Transmittance at Normal Incidence
  0.081,                                  !- Front Side Visible Reflectance at Normal Incidence
  0.081,                                  !- Back Side Visible Reflectance at Normal Incidence
  0,                                      !- Infrared Transmittance at Normal Incidence
  0.84,                                   !- Front Side Infrared Hemispherical Emissivity
  0.84,                                   !- Back Side Infrared Hemispherical Emissivity
  0.9;                                    !- Conductivity {W/m-K}

OS:WindowMaterial:Gas,
  {793a6116-2562-4c9f-aa68-0b243938e2f4}, !- Handle
  ARGON 13MM,                             !- Name
  Argon,                                  !- Gas Type
  0.0127;                                 !- Thickness {m}

OS:WindowMaterial:Glazing,
  {93368581-0b8d-4a5f-80fa-a55a3c920c2e}, !- Handle
  LoE CLEAR 3MM Rev,                      !- Name
  SpectralAverage,                        !- Optical Data Type
  ,                                       !- Window Glass Spectral Data Set Name
  0.003,                                  !- Thickness {m}
  0.63,                                   !- Solar Transmittance at Normal Incidence
  0.22,                                   !- Front Side Solar Reflectance at Normal Incidence
  0.19,                                   !- Back Side Solar Reflectance at Normal Incidence
  0.85,                                   !- Visible Transmittance at Normal Incidence
  0.079,                                  !- Front Side Visible Reflectance at Normal Incidence
  0.056,                                  !- Back Side Visible Reflectance at Normal Incidence
  0,                                      !- Infrared Transmittance at Normal Incidence
  0.1,                                    !- Front Side Infrared Hemispherical Emissivity
  0.84,                                   !- Back Side Infrared Hemispherical Emissivity
  0.9;                                    !- Conductivity {W/m-K}

