
! 
OS:Version,
  {9c37d538-db0d-4a47-9850-5bede7e76bd5}, !- Handle
  1.13.0;                                 !- Version Identifier


! {"nombreProductoCorto": "CLIMALIT PLUS con PLANISTAR ONE F2 XN F5 6(14 argon90%) 4 (14 argon90%) 44.2", "codigoEAN": "", "handle": "8869fda7-3d5c-47e4-adfe-be66e6297340", "g": 0.34, "tV": 0.5, "u": 0.6, "nombreProducto": "CLIMALIT PLUS con PLANISTAR ONE F2 XN F5 6(14 argon90%) 4 (14 argon90%) 44.2\nU:0.6 W/m2K - g:0.34 - Tv: 0.50"}
OS:WindowMaterial:SimpleGlazingSystem,
  {8869fda7-3d5c-47e4-adfe-be66e6297340}, !- Handle
  CLIMALIT PLUS con PLANISTAR ONE F2 XN F5 6(14 argon90%) 4 (14 argon90%) 44.2, !- Name
  0.6,                                    !- U-Factor {W/m2-K}
  0.34,                                    !- Solar Heat Gain Coefficient
  0.5;                                    !- Visible Transmittance     
  
  
OS:Construction,
  {5583ce18-9a94-4f55-97fa-8f849b6812b8}, !- Handle
  CLIMALIT PLUS con PLANISTAR ONE F2 XN F5 6(14 argon90%) 4 (14 argon90%) 44.2,                         !- Name
  ,                                       !- Surface Rendering Name
  {8869fda7-3d5c-47e4-adfe-be66e6297340}; !- Layer 1  

