
OS:Version,
  {bf707234-0d59-4833-a0c5-579f84f35eb9}, ! Handle
  0.9.3;                                  ! Version Identifier

OS:ComponentCost:LineItem,
  {12364cd0-87d9-4138-8832-1449fe8b0a7f}, ! Handle
  90.1-2001 Nonres B14 Int Wall,          ! Name
  ,                                       ! Type
  Construction,                           ! Line Item Type
  90.1-2001 Nonres B14 Int Wall,          ! Item Name
  ,                                       ! Object End Use Key
  ,                                       ! Quantity {dimensionless}
  0,                                      ! Material Cost {$}
  CostPerArea;                            ! Material Cost Units

OS:Construction,
  {dddbe558-2f23-450c-bdf8-117e626db4f5}, ! Handle
  90.1-2001 Nonres B14 Int Wall,          ! Name
  ,                                       ! Surface Rendering Name
  {3e821af1-c24e-4fed-a8c0-9bc9d4261026}, ! Layer 1
  {3e821af1-c24e-4fed-a8c0-9bc9d4261026}; ! Layer 2

OS:Material,
  {3e821af1-c24e-4fed-a8c0-9bc9d4261026}, ! Handle
  GP01 1/2 GYPSUM,                        ! Name
  Smooth,                                 ! Roughness
  0.01271,                                ! Thickness {m}
  0.16,                                   ! Conductivity {W/m-K}
  800,                                    ! Density {kg/m3}
  1090,                                   ! Specific Heat {J/kg-K}
  0.9,                                    ! Thermal Absorptance
  0.7,                                    ! Solar Absorptance
  0.5;                                    ! Visible Absorptance

OS:Material,
  {eef6e11a-b71e-4716-ae29-72c1e473e765}, ! Handle
  GP01 1/2 GYPSUM 1,                      ! Name
  Smooth,                                 ! Roughness
  0.01271,                                ! Thickness {m}
  0.16,                                   ! Conductivity {W/m-K}
  800,                                    ! Density {kg/m3}
  1090,                                   ! Specific Heat {J/kg-K}
  0.9,                                    ! Thermal Absorptance
  0.7,                                    ! Solar Absorptance
  0.5;                                    ! Visible Absorptance

