
OS:Version,
  {bde07642-9099-4623-8a18-ba2398c75337}, ! Handle
  0.9.3;                                  ! Version Identifier

OS:Material,
  {91cb67df-340c-455c-9f74-b3f9d2f3897e}, ! Handle
  1/2IN Gypsum Bottom,                    ! Name
  Smooth,                                 ! Roughness
  0.01271,                                ! Thickness {m}
  0.16,                                   ! Conductivity {W/m-K}
  784.9,                                  ! Density {kg/m3}
  830,                                    ! Specific Heat {J/kg-K}
  0.9,                                    ! Thermal Absorptance
  0.92,                                   ! Solar Absorptance
  0.92;                                   ! Visible Absorptance

OS:Material,
  {8cf2268e-9609-413d-a5af-cf4497a9e0e3}, ! Handle
  1/2IN Gypsum Top,                       ! Name
  Smooth,                                 ! Roughness
  0.01271,                                ! Thickness {m}
  0.16,                                   ! Conductivity {W/m-K}
  784.9,                                  ! Density {kg/m3}
  830,                                    ! Specific Heat {J/kg-K}
  0.9,                                    ! Thermal Absorptance
  0.92,                                   ! Solar Absorptance
  0.92;                                   ! Visible Absorptance

OS:Material,
  {91111f37-f499-4ac4-b024-df8d597aa381}, ! Handle
  AtticFloor Insulation,                  ! Name
  MediumRough,                            ! Roughness
  0.237853,                               ! Thickness {m}
  0.049,                                  ! Conductivity {W/m-K}
  265,                                    ! Density {kg/m3}
  836.8,                                  ! Specific Heat {J/kg-K}
  0.9,                                    ! Thermal Absorptance
  0.7,                                    ! Solar Absorptance
  0.7;                                    ! Visible Absorptance

OS:Construction,
  {b1c6e1d8-40c7-4ca1-8291-1ddc3285e7da}, ! Handle
  AEDG K12 Nonres 5B Attic Floor,         ! Name
  ,                                       ! Surface Rendering Name
  {8cf2268e-9609-413d-a5af-cf4497a9e0e3}, ! Layer 1
  {91111f37-f499-4ac4-b024-df8d597aa381}, ! Layer 2
  {91cb67df-340c-455c-9f74-b3f9d2f3897e}; ! Layer 3

OS:ComponentCost:LineItem,
  {2796629b-2158-46e0-b2a4-56d1f9e25acd}, ! Handle
  AEDG K12 Nonres 5B Attic Floor,         ! Name
  ,                                       ! Type
  Construction,                           ! Line Item Type
  AEDG K12 Nonres 5B Attic Floor,         ! Item Name
  ,                                       ! Object End Use Key
  ,                                       ! Quantity {dimensionless}
  33.596,                                 ! Material Cost {$}
  CostPerArea;                            ! Material Cost Units

