
OS:Version,
  {a216b401-8ca7-49f3-8353-2ff20007f150}, !- Handle
  1.1.0;                                  !- Version Identifier

OS:Construction,
  {c0cd3ec1-1d3c-4877-96b6-6b4f06242370}, !- Handle
  Sgl Ref-B-H Tint 6mm,                   !- Name
  ,                                       !- Surface Rendering Name
  {feb3eb4c-c319-4e3a-be22-fd349e6f5aed}; !- Layer 1

OS:WindowMaterial:Glazing,
  {feb3eb4c-c319-4e3a-be22-fd349e6f5aed}, !- Handle
  REF B TINT HI 6MM,                      !- Name
  SpectralAverage,                        !- Optical Data Type
  ,                                       !- Window Glass Spectral Data Set Name
  0.006,                                  !- Thickness {m}
  0.15,                                   !- Solar Transmittance at Normal Incidence
  0.09,                                   !- Front Side Solar Reflectance at Normal Incidence
  0.33,                                   !- Back Side Solar Reflectance at Normal Incidence
  0.18,                                   !- Visible Transmittance at Normal Incidence
  0.08,                                   !- Front Side Visible Reflectance at Normal Incidence
  0.28,                                   !- Back Side Visible Reflectance at Normal Incidence
  0,                                      !- Infrared Transmittance at Normal Incidence
  0.84,                                   !- Front Side Infrared Hemispherical Emissivity
  0.6,                                    !- Back Side Infrared Hemispherical Emissivity
  0.9;                                    !- Conductivity {W/m-K}

