
OS:Version,
  {7a6766c5-addb-4fc8-9c86-8483479867ad}, ! Handle
  0.9.3;                                  ! Version Identifier

OS:Construction,
  {df51f20d-117b-4b26-b74a-9994a47743cd}, ! Handle
  AEDG K12 Nonres 2A Int Wall,            ! Name
  ,                                       ! Surface Rendering Name
  {088efaa7-c22e-4751-9c62-070558f2215b}, ! Layer 1
  {088efaa7-c22e-4751-9c62-070558f2215b}; ! Layer 2

OS:Material,
  {088efaa7-c22e-4751-9c62-070558f2215b}, ! Handle
  GP01 1/2 GYPSUM,                        ! Name
  Smooth,                                 ! Roughness
  0.01271,                                ! Thickness {m}
  0.16,                                   ! Conductivity {W/m-K}
  800,                                    ! Density {kg/m3}
  1090,                                   ! Specific Heat {J/kg-K}
  0.9,                                    ! Thermal Absorptance
  0.7,                                    ! Solar Absorptance
  0.5;                                    ! Visible Absorptance

OS:ComponentCost:LineItem,
  {864019bb-6d6c-4434-a7c1-f0a82c244715}, ! Handle
  AEDG K12 Nonres 2A Int Wall,            ! Name
  ,                                       ! Type
  Construction,                           ! Line Item Type
  AEDG K12 Nonres 2A Int Wall,            ! Item Name
  ,                                       ! Object End Use Key
  ,                                       ! Quantity {dimensionless}
  0,                                      ! Material Cost {$}
  CostPerArea;                            ! Material Cost Units

OS:Material,
  {7f614b8c-d5f1-40fa-9e7c-729793a141ca}, ! Handle
  GP01 1/2 GYPSUM 1,                      ! Name
  Smooth,                                 ! Roughness
  0.01271,                                ! Thickness {m}
  0.16,                                   ! Conductivity {W/m-K}
  800,                                    ! Density {kg/m3}
  1090,                                   ! Specific Heat {J/kg-K}
  0.9,                                    ! Thermal Absorptance
  0.7,                                    ! Solar Absorptance
  0.5;                                    ! Visible Absorptance

