
OS:Version,
  {ca66c19c-fc3e-4786-bf84-9503142d1ed9}, ! Handle
  0.9.3;                                  ! Version Identifier

OS:ComponentCost:LineItem,
  {008c3160-8c63-4e65-8e29-f0f4cb42bda9}, ! Handle
  90.1-2004 Nonres 5B Ext Slab Unheated - 4in Slab without Carpet, ! Name
  ,                                       ! Type
  Construction,                           ! Line Item Type
  90.1-2004 Nonres 5B Ext Slab Unheated - 4in Slab without Carpet, ! Item Name
  ,                                       ! Object End Use Key
  ,                                       ! Quantity {dimensionless}
  45.52,                                  ! Material Cost {$}
  CostPerArea;                            ! Material Cost Units

OS:Material,
  {b0ee72d7-4994-4945-ac76-d76e9c78eb52}, ! Handle
  MAT-CC05 4 HW CONCRETE,                 ! Name
  Rough,                                  ! Roughness
  0.1016,                                 ! Thickness {m}
  1.311,                                  ! Conductivity {W/m-K}
  2240,                                   ! Density {kg/m3}
  836.8,                                  ! Specific Heat {J/kg-K}
  0.9,                                    ! Thermal Absorptance
  0.7,                                    ! Solar Absorptance
  0.7;                                    ! Visible Absorptance

OS:Construction,
  {13e975a7-d2ff-419e-9588-1127d6ab12bd}, ! Handle
  90.1-2004 Nonres 5B Ext Slab Unheated - 4in Slab without Carpet, ! Name
  ,                                       ! Surface Rendering Name
  {b0ee72d7-4994-4945-ac76-d76e9c78eb52}; ! Layer 1

