
OS:Version,
  {053a7098-a6c7-4076-8809-9368fa680e20}, ! Handle
  0.9.3;                                  ! Version Identifier

OS:Material,
  {8f00a92f-cf69-4041-89a9-4f13795f0cd3}, ! Handle
  1/2IN Gypsum,                           ! Name
  Smooth,                                 ! Roughness
  0.01271,                                ! Thickness {m}
  0.16,                                   ! Conductivity {W/m-K}
  784.9,                                  ! Density {kg/m3}
  830,                                    ! Specific Heat {J/kg-K}
  0.9,                                    ! Thermal Absorptance
  0.92,                                   ! Solar Absorptance
  0.92;                                   ! Visible Absorptance

OS:Material,
  {d2691fa8-1f94-4e78-88fc-601cd601e1b0}, ! Handle
  Wall Insulation,                        ! Name
  MediumRough,                            ! Roughness
  0.0598725,                              ! Thickness {m}
  0.045,                                  ! Conductivity {W/m-K}
  265,                                    ! Density {kg/m3}
  836.8,                                  ! Specific Heat {J/kg-K}
  0.9,                                    ! Thermal Absorptance
  0.7,                                    ! Solar Absorptance
  0.7;                                    ! Visible Absorptance

OS:Material,
  {7f997cd9-d0c1-419b-9c4e-b19b29cabd81}, ! Handle
  Metal Siding,                           ! Name
  Smooth,                                 ! Roughness
  0.0015,                                 ! Thickness {m}
  44.96,                                  ! Conductivity {W/m-K}
  7688.86,                                ! Density {kg/m3}
  410,                                    ! Specific Heat {J/kg-K}
  0.9,                                    ! Thermal Absorptance
  0.2,                                    ! Solar Absorptance
  0.2;                                    ! Visible Absorptance

OS:ComponentCost:LineItem,
  {bbe5f820-3eeb-4029-9c34-8a3427acf59b}, ! Handle
  90.1-2001 Res B18 Ext Wall Metal Building, ! Name
  ,                                       ! Type
  Construction,                           ! Line Item Type
  90.1-2001 Res B18 Ext Wall Metal Building, ! Item Name
  ,                                       ! Object End Use Key
  ,                                       ! Quantity {dimensionless}
  98.78,                                  ! Material Cost {$}
  CostPerArea;                            ! Material Cost Units

OS:Construction,
  {451fba29-98f7-4713-95d1-7a81b3fc8688}, ! Handle
  90.1-2001 Res B18 Ext Wall Metal Building, ! Name
  ,                                       ! Surface Rendering Name
  {7f997cd9-d0c1-419b-9c4e-b19b29cabd81}, ! Layer 1
  {d2691fa8-1f94-4e78-88fc-601cd601e1b0}, ! Layer 2
  {8f00a92f-cf69-4041-89a9-4f13795f0cd3}; ! Layer 3

