
OS:Version,
  {72db04f0-e126-4f79-9de1-ea940db61b45}, ! Handle
  0.9.3;                                  ! Version Identifier

OS:Construction,
  {3136116c-7886-4fae-8d06-769d347a2eee}, ! Handle
  Title 24-2008 Nonres 4 Window Fixed,    ! Name
  ,                                       ! Surface Rendering Name
  {9cd7d0d9-b80e-418e-af0d-7b69f98895ec}; ! Layer 1

OS:WindowMaterial:Glazing,
  {9cd7d0d9-b80e-418e-af0d-7b69f98895ec}, ! Handle
  Theoretical Glass [678],                ! Name
  SpectralAverage,                        ! Optical Data Type
  ,                                       ! Window Glass Spectral Data Set Name
  0.003,                                  ! Thickness {m}
  0.40093,                                ! Solar Transmittance at Normal Incidence
  0.54907,                                ! Front Side Solar Reflectance at Normal Incidence
  0.54907,                                ! Back Side Solar Reflectance at Normal Incidence
  0.410537,                               ! Visible Transmittance at Normal Incidence
  0.539463,                               ! Front Side Visible Reflectance at Normal Incidence
  0.539463,                               ! Back Side Visible Reflectance at Normal Incidence
  0,                                      ! Infrared Transmittance at Normal Incidence
  0.9,                                    ! Front Side Infrared Hemispherical Emissivity
  0.9,                                    ! Back Side Infrared Hemispherical Emissivity
  0.0406315;                              ! Conductivity {W/m-K}

OS:ComponentCost:LineItem,
  {a09d2827-a9f1-4bd9-a763-d36e7af25937}, ! Handle
  Title 24-2008 Nonres 4 Window Fixed,    ! Name
  ,                                       ! Type
  Construction,                           ! Line Item Type
  Title 24-2008 Nonres 4 Window Fixed,    ! Item Name
  ,                                       ! Object End Use Key
  ,                                       ! Quantity {dimensionless}
  511.59,                                 ! Material Cost {$}
  CostPerArea;                            ! Material Cost Units

OS:ComponentData,
  {6dce7d5b-1e55-4d17-9e19-e63fbacf3187}, ! Handle
  Component Data 1,                       ! Name
  {56134c2b-e748-4ab5-ad77-78d100f00c50}, ! UUID
  {0fcd5dcb-9dca-4925-b386-88cfbc7887dd}, ! Version UUID
  1363982015,                             ! Creation Timestamp
  1363982015,                             ! Version Timestamp
  {3136116c-7886-4fae-8d06-769d347a2eee}, ! Name of Object 1
  {9cd7d0d9-b80e-418e-af0d-7b69f98895ec}, ! Name of Object 2
  {a09d2827-a9f1-4bd9-a763-d36e7af25937}; ! Name of Object 3

