
OS:Version,
  {0686bafb-0216-4d1a-ad04-ce3ce2111ca8}, ! Handle
  0.9.3;                                  ! Version Identifier

OS:WindowMaterial:Glazing,
  {26ff61bc-6db6-47dc-b6aa-413ea3564a36}, ! Handle
  Theoretical Glass [678],                ! Name
  SpectralAverage,                        ! Optical Data Type
  ,                                       ! Window Glass Spectral Data Set Name
  0.003,                                  ! Thickness {m}
  0.40093,                                ! Solar Transmittance at Normal Incidence
  0.54907,                                ! Front Side Solar Reflectance at Normal Incidence
  0.54907,                                ! Back Side Solar Reflectance at Normal Incidence
  0.410537,                               ! Visible Transmittance at Normal Incidence
  0.539463,                               ! Front Side Visible Reflectance at Normal Incidence
  0.539463,                               ! Back Side Visible Reflectance at Normal Incidence
  0,                                      ! Infrared Transmittance at Normal Incidence
  0.9,                                    ! Front Side Infrared Hemispherical Emissivity
  0.9,                                    ! Back Side Infrared Hemispherical Emissivity
  0.0406315;                              ! Conductivity {W/m-K}

OS:Construction,
  {30950e69-96ed-4545-8279-0510f573997c}, ! Handle
  Title 24-2008 Nonres 4 Window Fixed,    ! Name
  ,                                       ! Surface Rendering Name
  {26ff61bc-6db6-47dc-b6aa-413ea3564a36}; ! Layer 1

OS:ComponentCost:LineItem,
  {2526e756-417a-4a42-a9f5-e597bd39fe6a}, ! Handle
  Title 24-2008 Nonres 4 Window Fixed,    ! Name
  ,                                       ! Type
  Construction,                           ! Line Item Type
  Title 24-2008 Nonres 4 Window Fixed,    ! Item Name
  ,                                       ! Object End Use Key
  ,                                       ! Quantity {dimensionless}
  511.59,                                 ! Material Cost {$}
  CostPerArea;                            ! Material Cost Units

