
OS:Version,
  {ed69e039-41fb-4bbc-b645-1358b8a16302}, ! Handle
  0.9.3;                                  ! Version Identifier

OS:ComponentCost:LineItem,
  {b1da5927-9151-44e2-9d51-f48b5bec650e}, ! Handle
  Title 24-2008 Nonres 6 Skylight Glass Skylight with Curb, ! Name
  ,                                       ! Type
  Construction,                           ! Line Item Type
  Title 24-2008 Nonres 6 Skylight Glass Skylight with Curb, ! Item Name
  ,                                       ! Object End Use Key
  ,                                       ! Quantity {dimensionless}
  501.798,                                ! Material Cost {$}
  CostPerArea;                            ! Material Cost Units

OS:WindowMaterial:Glazing,
  {89fab024-a816-4d3c-a83a-7db89ede55ef}, ! Handle
  Theoretical Glass [679],                ! Name
  SpectralAverage,                        ! Optical Data Type
  ,                                       ! Window Glass Spectral Data Set Name
  0.003,                                  ! Thickness {m}
  0.387604,                               ! Solar Transmittance at Normal Incidence
  0.562396,                               ! Front Side Solar Reflectance at Normal Incidence
  0.562396,                               ! Back Side Solar Reflectance at Normal Incidence
  0.400004,                               ! Visible Transmittance at Normal Incidence
  0.549996,                               ! Front Side Visible Reflectance at Normal Incidence
  0.549996,                               ! Back Side Visible Reflectance at Normal Incidence
  0,                                      ! Infrared Transmittance at Normal Incidence
  0.91,                                   ! Front Side Infrared Hemispherical Emissivity
  0.91,                                   ! Back Side Infrared Hemispherical Emissivity
  0.387053;                               ! Conductivity {W/m-K}

OS:Construction,
  {ee1c062f-c33a-4d46-9cc8-b76ff460c723}, ! Handle
  Title 24-2008 Nonres 6 Skylight Glass Skylight with Curb, ! Name
  ,                                       ! Surface Rendering Name
  {89fab024-a816-4d3c-a83a-7db89ede55ef}; ! Layer 1

