
OS:Version,
  {3afdf0c2-a69b-474a-9072-16abebed499d}, ! Handle
  0.9.3;                                  ! Version Identifier

OS:Material,
  {735ca862-40cb-4542-8a3b-94fc5a7e0b2a}, ! Handle
  1/2IN Gypsum,                           ! Name
  Smooth,                                 ! Roughness
  0.01271,                                ! Thickness {m}
  0.16,                                   ! Conductivity {W/m-K}
  784.9,                                  ! Density {kg/m3}
  830,                                    ! Specific Heat {J/kg-K}
  0.9,                                    ! Thermal Absorptance
  0.92,                                   ! Solar Absorptance
  0.92;                                   ! Visible Absorptance

OS:Construction,
  {2ed9f17f-769c-4aea-822c-473f3b07d71c}, ! Handle
  90.1-2004 Nonres 5B Roof Attic and Other, ! Name
  ,                                       ! Surface Rendering Name
  {6e13dffb-3e71-444b-8ba6-4169b0b88ff9}, ! Layer 1
  {7d21675b-915a-46a3-a4dc-a11fb5ee1781}, ! Layer 2
  {d6a451b3-068e-460b-b935-e9f5496244a1}, ! Layer 3
  {735ca862-40cb-4542-8a3b-94fc5a7e0b2a}; ! Layer 4

OS:Material,
  {6e13dffb-3e71-444b-8ba6-4169b0b88ff9}, ! Handle
  Wood Shingles,                          ! Name
  VeryRough,                              ! Roughness
  0.0178,                                 ! Thickness {m}
  0.115,                                  ! Conductivity {W/m-K}
  513,                                    ! Density {kg/m3}
  1255,                                   ! Specific Heat {J/kg-K}
  0.9,                                    ! Thermal Absorptance
  0.78,                                   ! Solar Absorptance
  0.78;                                   ! Visible Absorptance

OS:Material,
  {7d21675b-915a-46a3-a4dc-a11fb5ee1781}, ! Handle
  1IN Wood Decking,                       ! Name
  MediumSmooth,                           ! Roughness
  0.0254,                                 ! Thickness {m}
  0.1211,                                 ! Conductivity {W/m-K}
  593,                                    ! Density {kg/m3}
  2510,                                   ! Specific Heat {J/kg-K}
  0.9,                                    ! Thermal Absorptance
  0.78,                                   ! Solar Absorptance
  0.78;                                   ! Visible Absorptance

OS:Material,
  {d6a451b3-068e-460b-b935-e9f5496244a1}, ! Handle
  Roof Insulation [2],                    ! Name
  MediumRough,                            ! Roughness
  0.221604,                               ! Thickness {m}
  0.049,                                  ! Conductivity {W/m-K}
  265,                                    ! Density {kg/m3}
  836.8,                                  ! Specific Heat {J/kg-K}
  0.9,                                    ! Thermal Absorptance
  0.7,                                    ! Solar Absorptance
  0.7;                                    ! Visible Absorptance

OS:ComponentCost:LineItem,
  {1d8de76d-9140-4c27-bcec-954e4db6f801}, ! Handle
  90.1-2004 Nonres 5B Roof Attic and Other, ! Name
  ,                                       ! Type
  Construction,                           ! Line Item Type
  90.1-2004 Nonres 5B Roof Attic and Other, ! Item Name
  ,                                       ! Object End Use Key
  ,                                       ! Quantity {dimensionless}
  33.39,                                  ! Material Cost {$}
  CostPerArea;                            ! Material Cost Units

