
OS:Version,
  {bb1662c3-5013-49de-a609-42867366f639}, ! Handle
  0.9.3;                                  ! Version Identifier

OS:Construction,
  {a3323141-804e-407d-95cf-dd458e28eb2d}, ! Handle
  Title 24-2008 Nonres 11 Skylight without Curb, ! Name
  ,                                       ! Surface Rendering Name
  {6e853492-12a8-4d3e-af07-06cbc1258b53}; ! Layer 1

OS:WindowMaterial:Glazing,
  {6e853492-12a8-4d3e-af07-06cbc1258b53}, ! Handle
  Theoretical Glass [667],                ! Name
  SpectralAverage,                        ! Optical Data Type
  ,                                       ! Window Glass Spectral Data Set Name
  0.003,                                  ! Thickness {m}
  0.351757,                               ! Solar Transmittance at Normal Incidence
  0.598243,                               ! Front Side Solar Reflectance at Normal Incidence
  0.598243,                               ! Back Side Solar Reflectance at Normal Incidence
  0.360158,                               ! Visible Transmittance at Normal Incidence
  0.589842,                               ! Front Side Visible Reflectance at Normal Incidence
  0.589842,                               ! Back Side Visible Reflectance at Normal Incidence
  0,                                      ! Infrared Transmittance at Normal Incidence
  0.84,                                   ! Front Side Infrared Hemispherical Emissivity
  0.84,                                   ! Back Side Infrared Hemispherical Emissivity
  0.0305466;                              ! Conductivity {W/m-K}

OS:ComponentCost:LineItem,
  {38fe2854-4764-4468-878f-93b4d0d5e7af}, ! Handle
  Title 24-2008 Nonres 11 Skylight without Curb, ! Name
  ,                                       ! Type
  Construction,                           ! Line Item Type
  Title 24-2008 Nonres 11 Skylight without Curb, ! Item Name
  ,                                       ! Object End Use Key
  ,                                       ! Quantity {dimensionless}
  529.667,                                ! Material Cost {$}
  CostPerArea;                            ! Material Cost Units

