
OS:Version,
  {6a8b9d18-9029-41c7-a1ac-38d8ece9278e}, ! Handle
  0.9.3;                                  ! Version Identifier

OS:Material,
  {31d29352-620a-4711-8b11-85dda627c014}, ! Handle
  Wall Insulation,                        ! Name
  MediumRough,                            ! Roughness
  0.0598725,                              ! Thickness {m}
  0.045,                                  ! Conductivity {W/m-K}
  265,                                    ! Density {kg/m3}
  836.8,                                  ! Specific Heat {J/kg-K}
  0.9,                                    ! Thermal Absorptance
  0.7,                                    ! Solar Absorptance
  0.7;                                    ! Visible Absorptance

OS:Material,
  {52dd7944-7b7f-469b-817a-0b7351c5cdca}, ! Handle
  1/2IN Gypsum,                           ! Name
  Smooth,                                 ! Roughness
  0.01271,                                ! Thickness {m}
  0.16,                                   ! Conductivity {W/m-K}
  784.9,                                  ! Density {kg/m3}
  830,                                    ! Specific Heat {J/kg-K}
  0.9,                                    ! Thermal Absorptance
  0.92,                                   ! Solar Absorptance
  0.92;                                   ! Visible Absorptance

OS:Material,
  {6c2ffe1c-a890-4df0-96a9-83c37d199cb8}, ! Handle
  Metal Siding,                           ! Name
  Smooth,                                 ! Roughness
  0.0015,                                 ! Thickness {m}
  44.96,                                  ! Conductivity {W/m-K}
  7688.86,                                ! Density {kg/m3}
  410,                                    ! Specific Heat {J/kg-K}
  0.9,                                    ! Thermal Absorptance
  0.2,                                    ! Solar Absorptance
  0.2;                                    ! Visible Absorptance

OS:Construction,
  {cce8e2ad-c423-4d81-a3ad-b54b0a799ba6}, ! Handle
  AEDG-SmOffice 4B Ext Wall Metal Building, ! Name
  ,                                       ! Surface Rendering Name
  {6c2ffe1c-a890-4df0-96a9-83c37d199cb8}, ! Layer 1
  {31d29352-620a-4711-8b11-85dda627c014}, ! Layer 2
  {52dd7944-7b7f-469b-817a-0b7351c5cdca}; ! Layer 3

OS:ComponentCost:LineItem,
  {a32ebf48-d962-4255-b37e-3f6bf09a4ee6}, ! Handle
  AEDG-SmOffice 4B Ext Wall Metal Building, ! Name
  ,                                       ! Type
  Construction,                           ! Line Item Type
  AEDG-SmOffice 4B Ext Wall Metal Building, ! Item Name
  ,                                       ! Object End Use Key
  ,                                       ! Quantity {dimensionless}
  98.78,                                  ! Material Cost {$}
  CostPerArea;                            ! Material Cost Units

