
OS:Version,
  {9bc6ee64-813c-4fc7-860a-cab812500b06}, ! Handle
  0.9.3;                                  ! Version Identifier

OS:Construction,
  {a08653c3-b51f-4da3-8775-9b40b0a4c469}, ! Handle
  90.1-2007 Nonres 8A Ext Wall Steel-Framed, ! Name
  ,                                       ! Surface Rendering Name
  {34de13e2-eec6-4c0a-805e-53230ff60040}, ! Layer 1
  {69ec6ccb-1aca-4d58-af21-7579aa8c503a}, ! Layer 2
  {27315b81-73bf-40cf-8b42-c2c1cb3ccfb0}; ! Layer 3

OS:Material:NoMass,
  {34de13e2-eec6-4c0a-805e-53230ff60040}, ! Handle
  MAT-SHEATH,                             ! Name
  Rough,                                  ! Roughness
  0.36256,                                ! Thermal Resistance {m2-K/W}
  0.9,                                    ! Thermal Absorptance
  0.7,                                    ! Solar Absorptance
  0.7;                                    ! Visible Absorptance

OS:Material,
  {69ec6ccb-1aca-4d58-af21-7579aa8c503a}, ! Handle
  Wall Insulation [10],                   ! Name
  MediumRough,                            ! Roughness
  0.0971136,                              ! Thickness {m}
  0.045,                                  ! Conductivity {W/m-K}
  265,                                    ! Density {kg/m3}
  836.8,                                  ! Specific Heat {J/kg-K}
  0.9,                                    ! Thermal Absorptance
  0.7,                                    ! Solar Absorptance
  0.7;                                    ! Visible Absorptance

OS:Material,
  {27315b81-73bf-40cf-8b42-c2c1cb3ccfb0}, ! Handle
  1/2IN Gypsum,                           ! Name
  Smooth,                                 ! Roughness
  0.01271,                                ! Thickness {m}
  0.16,                                   ! Conductivity {W/m-K}
  784.9,                                  ! Density {kg/m3}
  830,                                    ! Specific Heat {J/kg-K}
  0.9,                                    ! Thermal Absorptance
  0.92,                                   ! Solar Absorptance
  0.92;                                   ! Visible Absorptance

OS:ComponentCost:LineItem,
  {314739da-6fff-47ec-ace7-6bd4c20f5f97}, ! Handle
  90.1-2007 Nonres 8A Ext Wall Steel-Framed, ! Name
  ,                                       ! Type
  Construction,                           ! Line Item Type
  90.1-2007 Nonres 8A Ext Wall Steel-Framed, ! Item Name
  ,                                       ! Object End Use Key
  ,                                       ! Quantity {dimensionless}
  94.657,                                 ! Material Cost {$}
  CostPerArea;                            ! Material Cost Units

