
OS:Version,
  {639c0b57-e605-4394-a56e-0c9b5497d576}, ! Handle
  0.9.3;                                  ! Version Identifier

OS:Construction,
  {7a71eb99-053f-4bf2-8669-c990e9de97f7}, ! Handle
  90.1-1999 Res B7 Skylight without Curb, ! Name
  ,                                       ! Surface Rendering Name
  {4d2c6726-9a7a-43c0-beb3-b1ac8c385ef0}; ! Layer 1

OS:WindowMaterial:Glazing,
  {4d2c6726-9a7a-43c0-beb3-b1ac8c385ef0}, ! Handle
  Theoretical Glass [76],                 ! Name
  SpectralAverage,                        ! Optical Data Type
  ,                                       ! Window Glass Spectral Data Set Name
  0.003,                                  ! Thickness {m}
  0.376276,                               ! Solar Transmittance at Normal Incidence
  0.573724,                               ! Front Side Solar Reflectance at Normal Incidence
  0.573724,                               ! Back Side Solar Reflectance at Normal Incidence
  0.41104,                                ! Visible Transmittance at Normal Incidence
  0.53896,                                ! Front Side Visible Reflectance at Normal Incidence
  0.53896,                                ! Back Side Visible Reflectance at Normal Incidence
  0,                                      ! Infrared Transmittance at Normal Incidence
  0.999,                                  ! Front Side Infrared Hemispherical Emissivity
  0.999,                                  ! Back Side Infrared Hemispherical Emissivity
  72.7123;                                ! Conductivity {W/m-K}

OS:ComponentCost:LineItem,
  {8a66596e-6a33-4f8a-bbc1-bfbc953da51f}, ! Handle
  90.1-1999 Res B7 Skylight without Curb, ! Name
  ,                                       ! Type
  Construction,                           ! Line Item Type
  90.1-1999 Res B7 Skylight without Curb, ! Item Name
  ,                                       ! Object End Use Key
  ,                                       ! Quantity {dimensionless}
  527.515,                                ! Material Cost {$}
  CostPerArea;                            ! Material Cost Units

