
OS:Version,
  {87b75583-4545-4801-b848-58d1d381a7ab}, ! Handle
  0.9.3;                                  ! Version Identifier

OS:Construction,
  {a3fc3cf3-250b-4079-a481-4ac176eede15}, ! Handle
  90.1-1999 Res B22 Skylight without Curb, ! Name
  ,                                       ! Surface Rendering Name
  {22a0cd77-a97e-4420-b76f-34e3a9f488f8}; ! Layer 1

OS:WindowMaterial:Glazing,
  {22a0cd77-a97e-4420-b76f-34e3a9f488f8}, ! Handle
  Theoretical Glass [109],                ! Name
  SpectralAverage,                        ! Optical Data Type
  ,                                       ! Window Glass Spectral Data Set Name
  0.003,                                  ! Thickness {m}
  0.622665,                               ! Solar Transmittance at Normal Incidence
  0.327335,                               ! Front Side Solar Reflectance at Normal Incidence
  0.327335,                               ! Back Side Solar Reflectance at Normal Incidence
  0.706654,                               ! Visible Transmittance at Normal Incidence
  0.243346,                               ! Front Side Visible Reflectance at Normal Incidence
  0.243346,                               ! Back Side Visible Reflectance at Normal Incidence
  0,                                      ! Infrared Transmittance at Normal Incidence
  0.9,                                    ! Front Side Infrared Hemispherical Emissivity
  0.9,                                    ! Back Side Infrared Hemispherical Emissivity
  0.0324872;                              ! Conductivity {W/m-K}

OS:ComponentCost:LineItem,
  {25430d8b-9061-43d6-88a6-98012e839326}, ! Handle
  90.1-1999 Res B22 Skylight without Curb, ! Name
  ,                                       ! Type
  Construction,                           ! Line Item Type
  90.1-1999 Res B22 Skylight without Curb, ! Item Name
  ,                                       ! Object End Use Key
  ,                                       ! Quantity {dimensionless}
  508.362,                                ! Material Cost {$}
  CostPerArea;                            ! Material Cost Units

