
OS:Version,
  {e38af6a7-8ff5-4ebb-b79f-9671733d8332}, ! Handle
  0.9.3;                                  ! Version Identifier

OS:ComponentCost:LineItem,
  {1a1451c8-9e87-4068-9e4b-e3024ca0047b}, ! Handle
  189.1-2009 Nonres 4B Roof Metal Building, ! Name
  ,                                       ! Type
  Construction,                           ! Line Item Type
  189.1-2009 Nonres 4B Roof Metal Building, ! Item Name
  ,                                       ! Object End Use Key
  ,                                       ! Quantity {dimensionless}
  47.657,                                 ! Material Cost {$}
  CostPerArea;                            ! Material Cost Units

OS:Material,
  {b121d78e-8e42-49d4-b8fa-90e053f7323e}, ! Handle
  Metal Roofing,                          ! Name
  MediumSmooth,                           ! Roughness
  0.001524,                               ! Thickness {m}
  45.006,                                 ! Conductivity {W/m-K}
  7680,                                   ! Density {kg/m3}
  418.4,                                  ! Specific Heat {J/kg-K}
  0.9,                                    ! Thermal Absorptance
  0.7,                                    ! Solar Absorptance
  0.3;                                    ! Visible Absorptance

OS:Construction,
  {83472dac-bad7-4b4e-9bc8-dbd79b1914e5}, ! Handle
  189.1-2009 Nonres 4B Roof Metal Building, ! Name
  ,                                       ! Surface Rendering Name
  {b121d78e-8e42-49d4-b8fa-90e053f7323e}, ! Layer 1
  {c5ddccae-6dc7-49de-923b-2b107e8c9c20}; ! Layer 2

OS:Material,
  {c5ddccae-6dc7-49de-923b-2b107e8c9c20}, ! Handle
  Roof Insulation [22],                   ! Name
  MediumRough,                            ! Roughness
  0.23578,                                ! Thickness {m}
  0.049,                                  ! Conductivity {W/m-K}
  265,                                    ! Density {kg/m3}
  836.8,                                  ! Specific Heat {J/kg-K}
  0.9,                                    ! Thermal Absorptance
  0.7,                                    ! Solar Absorptance
  0.7;                                    ! Visible Absorptance

