
OS:Version,
  {4d183445-c593-40ac-8a3f-8aa0b82491cb}, ! Handle
  0.9.3;                                  ! Version Identifier

OS:Material,
  {7f0cbb96-46b0-4d06-be59-2514c8d607e1}, ! Handle
  1/2IN Gypsum,                           ! Name
  Smooth,                                 ! Roughness
  0.01271,                                ! Thickness {m}
  0.16,                                   ! Conductivity {W/m-K}
  784.9,                                  ! Density {kg/m3}
  830,                                    ! Specific Heat {J/kg-K}
  0.9,                                    ! Thermal Absorptance
  0.92,                                   ! Solar Absorptance
  0.92;                                   ! Visible Absorptance

OS:Construction,
  {ebf7b8b0-a12b-411d-8891-ee06188771dc}, ! Handle
  90.1-1999 Nonres B9 Ext Wall Mass,      ! Name
  ,                                       ! Surface Rendering Name
  {b7538cee-bf8a-46ab-bed1-7ef3ac4cc2aa}, ! Layer 1
  {54cd601d-43e9-4a2c-8aac-a94d1568c1d8}, ! Layer 2
  {7f0cbb96-46b0-4d06-be59-2514c8d607e1}; ! Layer 3

OS:Material,
  {b7538cee-bf8a-46ab-bed1-7ef3ac4cc2aa}, ! Handle
  1IN Stucco,                             ! Name
  Smooth,                                 ! Roughness
  0.0253,                                 ! Thickness {m}
  0.6918,                                 ! Conductivity {W/m-K}
  1858,                                   ! Density {kg/m3}
  837,                                    ! Specific Heat {J/kg-K}
  0.9,                                    ! Thermal Absorptance
  0.92,                                   ! Solar Absorptance
  0.92;                                   ! Visible Absorptance

OS:Material,
  {54cd601d-43e9-4a2c-8aac-a94d1568c1d8}, ! Handle
  8IN Concrete HW,                        ! Name
  MediumRough,                            ! Roughness
  0.2033,                                 ! Thickness {m}
  1.7296,                                 ! Conductivity {W/m-K}
  2243,                                   ! Density {kg/m3}
  837,                                    ! Specific Heat {J/kg-K}
  0.9,                                    ! Thermal Absorptance
  0.65,                                   ! Solar Absorptance
  0.65;                                   ! Visible Absorptance

OS:ComponentCost:LineItem,
  {aa3d1727-1a92-4bdc-887f-7ebf3b353e36}, ! Handle
  90.1-1999 Nonres B9 Ext Wall Mass,      ! Name
  ,                                       ! Type
  Construction,                           ! Line Item Type
  90.1-1999 Nonres B9 Ext Wall Mass,      ! Item Name
  ,                                       ! Object End Use Key
  ,                                       ! Quantity {dimensionless}
  41.397,                                 ! Material Cost {$}
  CostPerArea;                            ! Material Cost Units

