
OS:Version,
  {187bcb48-ee92-427a-a5a4-2e8ef88aaba3}, ! Handle
  0.9.3;                                  ! Version Identifier

OS:Material,
  {7b81f42e-1e77-4861-8e5b-dbde96eb7d0e}, ! Handle
  1/2IN Gypsum,                           ! Name
  Smooth,                                 ! Roughness
  0.01271,                                ! Thickness {m}
  0.16,                                   ! Conductivity {W/m-K}
  784.9,                                  ! Density {kg/m3}
  830,                                    ! Specific Heat {J/kg-K}
  0.9,                                    ! Thermal Absorptance
  0.92,                                   ! Solar Absorptance
  0.92;                                   ! Visible Absorptance

OS:Material:NoMass,
  {fd32659a-5e06-45a8-a334-7d4445cb113a}, ! Handle
  MAT-SHEATH,                             ! Name
  Rough,                                  ! Roughness
  0.36256,                                ! Thermal Resistance {m2-K/W}
  0.9,                                    ! Thermal Absorptance
  0.7,                                    ! Solar Absorptance
  0.7;                                    ! Visible Absorptance

OS:Material,
  {8017120e-6131-4ed2-9f2f-d0fe0b16f55a}, ! Handle
  Wall Insulation [1],                    ! Name
  MediumRough,                            ! Roughness
  0.0373223,                              ! Thickness {m}
  0.045,                                  ! Conductivity {W/m-K}
  265,                                    ! Density {kg/m3}
  836.8,                                  ! Specific Heat {J/kg-K}
  0.9,                                    ! Thermal Absorptance
  0.7,                                    ! Solar Absorptance
  0.7;                                    ! Visible Absorptance

OS:ComponentCost:LineItem,
  {6da24d33-6f91-4892-b022-bb3c323d86c7}, ! Handle
  90.1-1999 Nonres B9 Ext Wall Steel-Framed, ! Name
  ,                                       ! Type
  Construction,                           ! Line Item Type
  90.1-1999 Nonres B9 Ext Wall Steel-Framed, ! Item Name
  ,                                       ! Object End Use Key
  ,                                       ! Quantity {dimensionless}
  87.08,                                  ! Material Cost {$}
  CostPerArea;                            ! Material Cost Units

OS:Construction,
  {2e3edf15-c554-4947-87fb-5f270d66ee9f}, ! Handle
  90.1-1999 Nonres B9 Ext Wall Steel-Framed, ! Name
  ,                                       ! Surface Rendering Name
  {fd32659a-5e06-45a8-a334-7d4445cb113a}, ! Layer 1
  {8017120e-6131-4ed2-9f2f-d0fe0b16f55a}, ! Layer 2
  {7b81f42e-1e77-4861-8e5b-dbde96eb7d0e}; ! Layer 3

