
OS:Version,
  {1f21f4b8-4e8c-4227-9c7c-954b535eb54c}, ! Handle
  0.9.3;                                  ! Version Identifier

OS:Material,
  {2a3d93d1-7f22-461c-a71f-1cb4c2c05090}, ! Handle
  Roof Insulation,                        ! Name
  MediumRough,                            ! Roughness
  0.124958,                               ! Thickness {m}
  0.049,                                  ! Conductivity {W/m-K}
  265,                                    ! Density {kg/m3}
  836.8,                                  ! Specific Heat {J/kg-K}
  0.9,                                    ! Thermal Absorptance
  0.7,                                    ! Solar Absorptance
  0.7;                                    ! Visible Absorptance

OS:Construction,
  {394fa260-9712-404b-aedb-e32cdc3749c5}, ! Handle
  90.1-2001 Res B13 Roof IEAD,            ! Name
  ,                                       ! Surface Rendering Name
  {e55bfc2c-a558-4360-98f8-46fe0614c6a1}, ! Layer 1
  {2a3d93d1-7f22-461c-a71f-1cb4c2c05090}, ! Layer 2
  {c9b03b1d-6bfe-42ba-92c1-ef6d9db9173a}; ! Layer 3

OS:Material,
  {e55bfc2c-a558-4360-98f8-46fe0614c6a1}, ! Handle
  Roof Membrane,                          ! Name
  VeryRough,                              ! Roughness
  0.0095,                                 ! Thickness {m}
  0.16,                                   ! Conductivity {W/m-K}
  1121.29,                                ! Density {kg/m3}
  1460,                                   ! Specific Heat {J/kg-K}
  0.9,                                    ! Thermal Absorptance
  0.7,                                    ! Solar Absorptance
  0.7;                                    ! Visible Absorptance

OS:Material,
  {c9b03b1d-6bfe-42ba-92c1-ef6d9db9173a}, ! Handle
  Metal Decking,                          ! Name
  MediumSmooth,                           ! Roughness
  0.001524,                               ! Thickness {m}
  45.006,                                 ! Conductivity {W/m-K}
  7680,                                   ! Density {kg/m3}
  418.4,                                  ! Specific Heat {J/kg-K}
  0.9,                                    ! Thermal Absorptance
  0.7,                                    ! Solar Absorptance
  0.3;                                    ! Visible Absorptance

OS:ComponentCost:LineItem,
  {fae7883e-9f59-4ba4-9d28-4534bdfb4944}, ! Handle
  90.1-2001 Res B13 Roof IEAD,            ! Name
  ,                                       ! Type
  Construction,                           ! Line Item Type
  90.1-2001 Res B13 Roof IEAD,            ! Item Name
  ,                                       ! Object End Use Key
  ,                                       ! Quantity {dimensionless}
  49.208,                                 ! Material Cost {$}
  CostPerArea;                            ! Material Cost Units

