
OS:Version,
  {f86a5297-7c17-49e9-94c2-26e1a7f26c1c}, ! Handle
  0.9.3;                                  ! Version Identifier

OS:ComponentCost:LineItem,
  {993fdd42-90a8-4564-b595-17c5ce0ca8df}, ! Handle
  90.1-1999 Res B25 Ext Wall Metal Building, ! Name
  ,                                       ! Type
  Construction,                           ! Line Item Type
  90.1-1999 Res B25 Ext Wall Metal Building, ! Item Name
  ,                                       ! Object End Use Key
  ,                                       ! Quantity {dimensionless}
  107.698,                                ! Material Cost {$}
  CostPerArea;                            ! Material Cost Units

OS:Material,
  {738b349d-f892-4bbf-9cd6-ba0590c31e54}, ! Handle
  Metal Siding,                           ! Name
  Smooth,                                 ! Roughness
  0.0015,                                 ! Thickness {m}
  44.96,                                  ! Conductivity {W/m-K}
  7688.86,                                ! Density {kg/m3}
  410,                                    ! Specific Heat {J/kg-K}
  0.9,                                    ! Thermal Absorptance
  0.2,                                    ! Solar Absorptance
  0.2;                                    ! Visible Absorptance

OS:Material,
  {f201e093-12bc-41ee-b49d-2b0348155fb8}, ! Handle
  Wall Insulation [9],                    ! Name
  MediumRough,                            ! Roughness
  0.128642,                               ! Thickness {m}
  0.045,                                  ! Conductivity {W/m-K}
  265,                                    ! Density {kg/m3}
  836.8,                                  ! Specific Heat {J/kg-K}
  0.9,                                    ! Thermal Absorptance
  0.7,                                    ! Solar Absorptance
  0.7;                                    ! Visible Absorptance

OS:Construction,
  {958f3f14-3303-4e3f-9452-12005576fc77}, ! Handle
  90.1-1999 Res B25 Ext Wall Metal Building, ! Name
  ,                                       ! Surface Rendering Name
  {738b349d-f892-4bbf-9cd6-ba0590c31e54}, ! Layer 1
  {f201e093-12bc-41ee-b49d-2b0348155fb8}, ! Layer 2
  {d1772313-10a9-44b8-a18f-181f33b18805}; ! Layer 3

OS:Material,
  {d1772313-10a9-44b8-a18f-181f33b18805}, ! Handle
  1/2IN Gypsum,                           ! Name
  Smooth,                                 ! Roughness
  0.01271,                                ! Thickness {m}
  0.16,                                   ! Conductivity {W/m-K}
  784.9,                                  ! Density {kg/m3}
  830,                                    ! Specific Heat {J/kg-K}
  0.9,                                    ! Thermal Absorptance
  0.92,                                   ! Solar Absorptance
  0.92;                                   ! Visible Absorptance

