
OS:Version,
  {a85f7056-ea52-4b16-9309-050d50ecdcaa}, ! Handle
  0.9.3;                                  ! Version Identifier

OS:Construction,
  {17dff752-5745-4481-92e8-22f3ef2faf8b}, ! Handle
  90.1-2001 Nonres B23 Ext Wall Steel-Framed, ! Name
  ,                                       ! Surface Rendering Name
  {3e428e0e-5b14-46e5-9485-65eeb5836e8b}, ! Layer 1
  {c945efe0-918f-4222-a65b-6bfa1804c36a}, ! Layer 2
  {4fa2f5fd-fc27-4d80-8109-3269b969fa52}; ! Layer 3

OS:Material:NoMass,
  {3e428e0e-5b14-46e5-9485-65eeb5836e8b}, ! Handle
  MAT-SHEATH,                             ! Name
  Rough,                                  ! Roughness
  0.36256,                                ! Thermal Resistance {m2-K/W}
  0.9,                                    ! Thermal Absorptance
  0.7,                                    ! Solar Absorptance
  0.7;                                    ! Visible Absorptance

OS:Material,
  {c945efe0-918f-4222-a65b-6bfa1804c36a}, ! Handle
  Wall Insulation [10],                   ! Name
  MediumRough,                            ! Roughness
  0.0971136,                              ! Thickness {m}
  0.045,                                  ! Conductivity {W/m-K}
  265,                                    ! Density {kg/m3}
  836.8,                                  ! Specific Heat {J/kg-K}
  0.9,                                    ! Thermal Absorptance
  0.7,                                    ! Solar Absorptance
  0.7;                                    ! Visible Absorptance

OS:Material,
  {4fa2f5fd-fc27-4d80-8109-3269b969fa52}, ! Handle
  1/2IN Gypsum,                           ! Name
  Smooth,                                 ! Roughness
  0.01271,                                ! Thickness {m}
  0.16,                                   ! Conductivity {W/m-K}
  784.9,                                  ! Density {kg/m3}
  830,                                    ! Specific Heat {J/kg-K}
  0.9,                                    ! Thermal Absorptance
  0.92,                                   ! Solar Absorptance
  0.92;                                   ! Visible Absorptance

OS:ComponentCost:LineItem,
  {2b1fa020-d920-4697-99bd-266f09acbc12}, ! Handle
  90.1-2001 Nonres B23 Ext Wall Steel-Framed, ! Name
  ,                                       ! Type
  Construction,                           ! Line Item Type
  90.1-2001 Nonres B23 Ext Wall Steel-Framed, ! Item Name
  ,                                       ! Object End Use Key
  ,                                       ! Quantity {dimensionless}
  94.657,                                 ! Material Cost {$}
  CostPerArea;                            ! Material Cost Units

