
OS:Version,
  {09fc2429-3312-48c6-a066-329cc093ab71}, ! Handle
  0.9.3;                                  ! Version Identifier

OS:Construction,
  {04a179e5-e8d2-491f-99a5-4474f3bbbccc}, ! Handle
  90.1-2001 Nonres B23 Ext Wall Steel-Framed, ! Name
  ,                                       ! Surface Rendering Name
  {97c2bd87-afbd-483b-bb1d-7a6a0da2cbed}, ! Layer 1
  {b0ea6893-1f35-4cc4-ab2c-fc3ad8fcedf4}, ! Layer 2
  {e6045d26-ffe3-449f-9e6d-d7e42913d486}; ! Layer 3

OS:Material:NoMass,
  {97c2bd87-afbd-483b-bb1d-7a6a0da2cbed}, ! Handle
  MAT-SHEATH,                             ! Name
  Rough,                                  ! Roughness
  0.36256,                                ! Thermal Resistance {m2-K/W}
  0.9,                                    ! Thermal Absorptance
  0.7,                                    ! Solar Absorptance
  0.7;                                    ! Visible Absorptance

OS:Material,
  {b0ea6893-1f35-4cc4-ab2c-fc3ad8fcedf4}, ! Handle
  Wall Insulation [10],                   ! Name
  MediumRough,                            ! Roughness
  0.0971136,                              ! Thickness {m}
  0.045,                                  ! Conductivity {W/m-K}
  265,                                    ! Density {kg/m3}
  836.8,                                  ! Specific Heat {J/kg-K}
  0.9,                                    ! Thermal Absorptance
  0.7,                                    ! Solar Absorptance
  0.7;                                    ! Visible Absorptance

OS:Material,
  {e6045d26-ffe3-449f-9e6d-d7e42913d486}, ! Handle
  1/2IN Gypsum,                           ! Name
  Smooth,                                 ! Roughness
  0.01271,                                ! Thickness {m}
  0.16,                                   ! Conductivity {W/m-K}
  784.9,                                  ! Density {kg/m3}
  830,                                    ! Specific Heat {J/kg-K}
  0.9,                                    ! Thermal Absorptance
  0.92,                                   ! Solar Absorptance
  0.92;                                   ! Visible Absorptance

OS:ComponentCost:LineItem,
  {76e16134-444a-433d-8bb8-af4316181af9}, ! Handle
  90.1-2001 Nonres B23 Ext Wall Steel-Framed, ! Name
  ,                                       ! Type
  Construction,                           ! Line Item Type
  90.1-2001 Nonres B23 Ext Wall Steel-Framed, ! Item Name
  ,                                       ! Object End Use Key
  ,                                       ! Quantity {dimensionless}
  94.657,                                 ! Material Cost {$}
  CostPerArea;                            ! Material Cost Units

OS:ComponentData,
  {83bd9a85-140a-4b41-ac12-98dae1821051}, ! Handle
  Component Data 1,                       ! Name
  {5815a1fd-3ee2-4e91-a7b1-bbbd48bad698}, ! UUID
  {f38ba79e-9ea6-4518-93a0-4814664cff54}, ! Version UUID
  1363981419,                             ! Creation Timestamp
  1363981419,                             ! Version Timestamp
  {04a179e5-e8d2-491f-99a5-4474f3bbbccc}, ! Name of Object 1
  {97c2bd87-afbd-483b-bb1d-7a6a0da2cbed}, ! Name of Object 2
  {b0ea6893-1f35-4cc4-ab2c-fc3ad8fcedf4}, ! Name of Object 3
  {e6045d26-ffe3-449f-9e6d-d7e42913d486}, ! Name of Object 4
  {76e16134-444a-433d-8bb8-af4316181af9}; ! Name of Object 5

