
OS:Version,
  {2a983116-0bda-408c-9627-ed7988bd4503}, ! Handle
  0.9.3;                                  ! Version Identifier

OS:Construction,
  {e861f57f-17df-4fec-b2db-7dc5426fdd50}, ! Handle
  90.1 Windows Window Fixed 2135 Mtl-GrnMpr-Std-ClrSpe, ! Name
  ,                                       ! Surface Rendering Name
  {6cef59ed-2e90-4202-b745-777f4f8f0834}; ! Layer 1

OS:WindowMaterial:Glazing,
  {6cef59ed-2e90-4202-b745-777f4f8f0834}, ! Handle
  Theoretical Glass [454],                ! Name
  SpectralAverage,                        ! Optical Data Type
  ,                                       ! Window Glass Spectral Data Set Name
  0.003,                                  ! Thickness {m}
  0.293063,                               ! Solar Transmittance at Normal Incidence
  0.656937,                               ! Front Side Solar Reflectance at Normal Incidence
  0.656937,                               ! Back Side Solar Reflectance at Normal Incidence
  0.320998,                               ! Visible Transmittance at Normal Incidence
  0.629002,                               ! Front Side Visible Reflectance at Normal Incidence
  0.629002,                               ! Back Side Visible Reflectance at Normal Incidence
  0,                                      ! Infrared Transmittance at Normal Incidence
  0.9,                                    ! Front Side Infrared Hemispherical Emissivity
  0.9,                                    ! Back Side Infrared Hemispherical Emissivity
  0.0213046;                              ! Conductivity {W/m-K}

OS:ComponentCost:LineItem,
  {32e66e37-f10f-4706-a621-73c7dd6f730a}, ! Handle
  90.1 Windows Window Fixed 2135 Mtl-GrnMpr-Std-ClrSpe, ! Name
  ,                                       ! Type
  Construction,                           ! Line Item Type
  90.1 Windows Window Fixed 2135 Mtl-GrnMpr-Std-ClrSpe, ! Item Name
  ,                                       ! Object End Use Key
  ,                                       ! Quantity {dimensionless}
  0,                                      ! Material Cost {$}
  CostPerArea;                            ! Material Cost Units

OS:ComponentData,
  {4d9bb96d-a949-44b0-a7d0-92c7f184cc2f}, ! Handle
  Component Data 1,                       ! Name
  {727170d9-0cf4-49b7-9183-3cea46ace744}, ! UUID
  {eb6aebb9-8a32-4216-96c0-de796249f1a9}, ! Version UUID
  1363981020,                             ! Creation Timestamp
  1363981020,                             ! Version Timestamp
  {e861f57f-17df-4fec-b2db-7dc5426fdd50}, ! Name of Object 1
  {6cef59ed-2e90-4202-b745-777f4f8f0834}, ! Name of Object 2
  {32e66e37-f10f-4706-a621-73c7dd6f730a}; ! Name of Object 3

