
OS:Version,
  {9c514019-6793-43c9-9949-5e4472a9c0b3}, ! Handle
  0.9.3;                                  ! Version Identifier

OS:Construction,
  {f38561b3-ec33-4d10-9691-83474e5a24a6}, ! Handle
  AEDG-SmOffice 8A Ext Slab Unheated - 4in Slab without Carpet, ! Name
  ,                                       ! Surface Rendering Name
  {86dc85fd-4197-46c5-8063-5c12990c40c2}; ! Layer 1

OS:Material,
  {86dc85fd-4197-46c5-8063-5c12990c40c2}, ! Handle
  MAT-CC05 4 HW CONCRETE,                 ! Name
  Rough,                                  ! Roughness
  0.1016,                                 ! Thickness {m}
  1.311,                                  ! Conductivity {W/m-K}
  2240,                                   ! Density {kg/m3}
  836.8,                                  ! Specific Heat {J/kg-K}
  0.9,                                    ! Thermal Absorptance
  0.7,                                    ! Solar Absorptance
  0.7;                                    ! Visible Absorptance

OS:ComponentCost:LineItem,
  {c6158d07-59dd-49b5-a5c0-fb2be66af42b}, ! Handle
  AEDG-SmOffice 8A Ext Slab Unheated - 4in Slab without Carpet, ! Name
  ,                                       ! Type
  Construction,                           ! Line Item Type
  AEDG-SmOffice 8A Ext Slab Unheated - 4in Slab without Carpet, ! Item Name
  ,                                       ! Object End Use Key
  ,                                       ! Quantity {dimensionless}
  45.52,                                  ! Material Cost {$}
  CostPerArea;                            ! Material Cost Units

OS:ComponentData,
  {ca483414-3062-416e-a555-95258a76c229}, ! Handle
  Component Data 1,                       ! Name
  {9135555c-541d-4f97-99d3-dfd1dc71c129}, ! UUID
  {931aa4a5-e6d4-453d-89dd-474da0adae7f}, ! Version UUID
  1363981969,                             ! Creation Timestamp
  1363981969,                             ! Version Timestamp
  {f38561b3-ec33-4d10-9691-83474e5a24a6}, ! Name of Object 1
  {86dc85fd-4197-46c5-8063-5c12990c40c2}, ! Name of Object 2
  {c6158d07-59dd-49b5-a5c0-fb2be66af42b}; ! Name of Object 3

