
OS:Version,
  {abd72d4d-dd9a-43ca-b23c-9b22d0b55a81}, ! Handle
  0.9.3;                                  ! Version Identifier

OS:Construction,
  {ce80bdb9-2fc6-4ebf-9e50-0c1c116c8442}, ! Handle
  AEDG-SmOffice 8A Ext Slab Unheated - 4in Slab without Carpet, ! Name
  ,                                       ! Surface Rendering Name
  {a6017e6b-6d87-45b4-83cb-b2f34512f026}; ! Layer 1

OS:Material,
  {a6017e6b-6d87-45b4-83cb-b2f34512f026}, ! Handle
  MAT-CC05 4 HW CONCRETE,                 ! Name
  Rough,                                  ! Roughness
  0.1016,                                 ! Thickness {m}
  1.311,                                  ! Conductivity {W/m-K}
  2240,                                   ! Density {kg/m3}
  836.8,                                  ! Specific Heat {J/kg-K}
  0.9,                                    ! Thermal Absorptance
  0.7,                                    ! Solar Absorptance
  0.7;                                    ! Visible Absorptance

OS:ComponentCost:LineItem,
  {cf4b5b76-ba75-4637-9e9b-154bddd9d82a}, ! Handle
  AEDG-SmOffice 8A Ext Slab Unheated - 4in Slab without Carpet, ! Name
  ,                                       ! Type
  Construction,                           ! Line Item Type
  AEDG-SmOffice 8A Ext Slab Unheated - 4in Slab without Carpet, ! Item Name
  ,                                       ! Object End Use Key
  ,                                       ! Quantity {dimensionless}
  45.52,                                  ! Material Cost {$}
  CostPerArea;                            ! Material Cost Units

