
OS:Version,
  {d23221e2-1ef2-4fdd-9d6f-50c4a23b94ea}, ! Handle
  0.9.3;                                  ! Version Identifier

OS:Construction,
  {91229541-8714-48b0-86ce-e821306cfc18}, ! Handle
  90.1-2004 Nonres 1A Skylight without Curb, ! Name
  ,                                       ! Surface Rendering Name
  {4d5769a6-019f-41a9-bc7c-12bc09d64b59}; ! Layer 1

OS:WindowMaterial:Glazing,
  {4d5769a6-019f-41a9-bc7c-12bc09d64b59}, ! Handle
  Theoretical Glass [128],                ! Name
  SpectralAverage,                        ! Optical Data Type
  ,                                       ! Window Glass Spectral Data Set Name
  0.003,                                  ! Thickness {m}
  0.346104,                               ! Solar Transmittance at Normal Incidence
  0.603896,                               ! Front Side Solar Reflectance at Normal Incidence
  0.603896,                               ! Back Side Solar Reflectance at Normal Incidence
  0.457336,                               ! Visible Transmittance at Normal Incidence
  0.492664,                               ! Front Side Visible Reflectance at Normal Incidence
  0.492664,                               ! Back Side Visible Reflectance at Normal Incidence
  0,                                      ! Infrared Transmittance at Normal Incidence
  0.999,                                  ! Front Side Infrared Hemispherical Emissivity
  0.999,                                  ! Back Side Infrared Hemispherical Emissivity
  299.383;                                ! Conductivity {W/m-K}

OS:ComponentCost:LineItem,
  {d28fcb54-c71e-495d-8544-7bf34002af00}, ! Handle
  90.1-2004 Nonres 1A Skylight without Curb, ! Name
  ,                                       ! Type
  Construction,                           ! Line Item Type
  90.1-2004 Nonres 1A Skylight without Curb, ! Item Name
  ,                                       ! Object End Use Key
  ,                                       ! Quantity {dimensionless}
  498.248,                                ! Material Cost {$}
  CostPerArea;                            ! Material Cost Units

