
OS:Version,
  {d4dd853c-3286-4791-9bdd-de70085d9b86}, ! Handle
  0.9.3;                                  ! Version Identifier

OS:WindowMaterial:Glazing,
  {4de88574-b3ce-476b-b6a7-03844a9e1a30}, ! Handle
  Theoretical Glass [532],                ! Name
  SpectralAverage,                        ! Optical Data Type
  ,                                       ! Window Glass Spectral Data Set Name
  0.003,                                  ! Thickness {m}
  0.216943,                               ! Solar Transmittance at Normal Incidence
  0.733057,                               ! Front Side Solar Reflectance at Normal Incidence
  0.733057,                               ! Back Side Solar Reflectance at Normal Incidence
  0.320998,                               ! Visible Transmittance at Normal Incidence
  0.629002,                               ! Front Side Visible Reflectance at Normal Incidence
  0.629002,                               ! Back Side Visible Reflectance at Normal Incidence
  0,                                      ! Infrared Transmittance at Normal Incidence
  0.9,                                    ! Front Side Infrared Hemispherical Emissivity
  0.9,                                    ! Back Side Infrared Hemispherical Emissivity
  0.00845731;                             ! Conductivity {W/m-K}

OS:Construction,
  {c6a076bf-3091-4f17-b804-f6e12e315e79}, ! Handle
  90.1 Windows Window Fixed 2619 Vnl-HptSbe-Ins-Clr, ! Name
  ,                                       ! Surface Rendering Name
  {4de88574-b3ce-476b-b6a7-03844a9e1a30}; ! Layer 1

OS:ComponentCost:LineItem,
  {1ba172aa-b6e8-451e-be8b-dd6c9fa48678}, ! Handle
  90.1 Windows Window Fixed 2619 Vnl-HptSbe-Ins-Clr, ! Name
  ,                                       ! Type
  Construction,                           ! Line Item Type
  90.1 Windows Window Fixed 2619 Vnl-HptSbe-Ins-Clr, ! Item Name
  ,                                       ! Object End Use Key
  ,                                       ! Quantity {dimensionless}
  0,                                      ! Material Cost {$}
  CostPerArea;                            ! Material Cost Units

