
OS:Version,
  {3bf43f90-5e38-4b82-9850-9bd7d0503d08}, ! Handle
  0.9.3;                                  ! Version Identifier

OS:Construction,
  {3e982927-c79a-46a0-9509-91f2f2a33d1e}, ! Handle
  AEDG-SmOffice 7A Ext Wall Mass,         ! Name
  ,                                       ! Surface Rendering Name
  {c273c922-8e81-46aa-991d-d0ebc092bf63}, ! Layer 1
  {96d94ea6-6840-4ba3-9dfa-1e511720aa90}, ! Layer 2
  {5b2f99ff-6732-4ac8-bcc9-254d70bbc34b}, ! Layer 3
  {d5cca16a-e798-4094-a422-86284b981a73}; ! Layer 4

OS:Material,
  {c273c922-8e81-46aa-991d-d0ebc092bf63}, ! Handle
  1IN Stucco,                             ! Name
  Smooth,                                 ! Roughness
  0.0253,                                 ! Thickness {m}
  0.6918,                                 ! Conductivity {W/m-K}
  1858,                                   ! Density {kg/m3}
  837,                                    ! Specific Heat {J/kg-K}
  0.9,                                    ! Thermal Absorptance
  0.92,                                   ! Solar Absorptance
  0.92;                                   ! Visible Absorptance

OS:Material,
  {96d94ea6-6840-4ba3-9dfa-1e511720aa90}, ! Handle
  8IN Concrete HW,                        ! Name
  MediumRough,                            ! Roughness
  0.2033,                                 ! Thickness {m}
  1.7296,                                 ! Conductivity {W/m-K}
  2243,                                   ! Density {kg/m3}
  837,                                    ! Specific Heat {J/kg-K}
  0.9,                                    ! Thermal Absorptance
  0.65,                                   ! Solar Absorptance
  0.65;                                   ! Visible Absorptance

OS:Material,
  {5b2f99ff-6732-4ac8-bcc9-254d70bbc34b}, ! Handle
  Wall Insulation [14],                   ! Name
  MediumRough,                            ! Roughness
  0.0905233,                              ! Thickness {m}
  0.0432,                                 ! Conductivity {W/m-K}
  91,                                     ! Density {kg/m3}
  837,                                    ! Specific Heat {J/kg-K}
  0.9,                                    ! Thermal Absorptance
  0.5,                                    ! Solar Absorptance
  0.5;                                    ! Visible Absorptance

OS:Material,
  {d5cca16a-e798-4094-a422-86284b981a73}, ! Handle
  1/2IN Gypsum,                           ! Name
  Smooth,                                 ! Roughness
  0.01271,                                ! Thickness {m}
  0.16,                                   ! Conductivity {W/m-K}
  784.9,                                  ! Density {kg/m3}
  830,                                    ! Specific Heat {J/kg-K}
  0.9,                                    ! Thermal Absorptance
  0.92,                                   ! Solar Absorptance
  0.92;                                   ! Visible Absorptance

OS:ComponentCost:LineItem,
  {a65e4910-f214-492b-b18e-32390f17c974}, ! Handle
  AEDG-SmOffice 7A Ext Wall Mass,         ! Name
  ,                                       ! Type
  Construction,                           ! Line Item Type
  AEDG-SmOffice 7A Ext Wall Mass,         ! Item Name
  ,                                       ! Object End Use Key
  ,                                       ! Quantity {dimensionless}
  70.253,                                 ! Material Cost {$}
  CostPerArea;                            ! Material Cost Units

