
OS:Version,
  {196e58da-bd72-4aa4-bf5f-33ef59b0cef6}, ! Handle
  0.9.3;                                  ! Version Identifier

OS:Construction,
  {fa614eaf-3d60-419c-9f47-972b0d896067}, ! Handle
  90.1-1999 Nonres B15 Ext Wall Wood-Framed and Other, ! Name
  ,                                       ! Surface Rendering Name
  {5d9d822d-d905-444c-ac21-9dc4b10bfcb0}, ! Layer 1
  {99b4f820-1bad-4c75-97b5-39ed50a1acd6}, ! Layer 2
  {9326bbc8-9a56-4046-a3de-95f90c2f3d4f}; ! Layer 3

OS:Material,
  {5d9d822d-d905-444c-ac21-9dc4b10bfcb0}, ! Handle
  Wood Siding,                            ! Name
  MediumSmooth,                           ! Roughness
  0.01,                                   ! Thickness {m}
  0.11,                                   ! Conductivity {W/m-K}
  544.62,                                 ! Density {kg/m3}
  1210,                                   ! Specific Heat {J/kg-K}
  0.9,                                    ! Thermal Absorptance
  0.78,                                   ! Solar Absorptance
  0.78;                                   ! Visible Absorptance

OS:Material,
  {99b4f820-1bad-4c75-97b5-39ed50a1acd6}, ! Handle
  Wall Insulation [2],                    ! Name
  MediumRough,                            ! Roughness
  0.0746874,                              ! Thickness {m}
  0.045,                                  ! Conductivity {W/m-K}
  265,                                    ! Density {kg/m3}
  836.8,                                  ! Specific Heat {J/kg-K}
  0.9,                                    ! Thermal Absorptance
  0.7,                                    ! Solar Absorptance
  0.7;                                    ! Visible Absorptance

OS:Material,
  {9326bbc8-9a56-4046-a3de-95f90c2f3d4f}, ! Handle
  1/2IN Gypsum,                           ! Name
  Smooth,                                 ! Roughness
  0.01271,                                ! Thickness {m}
  0.16,                                   ! Conductivity {W/m-K}
  784.9,                                  ! Density {kg/m3}
  830,                                    ! Specific Heat {J/kg-K}
  0.9,                                    ! Thermal Absorptance
  0.92,                                   ! Solar Absorptance
  0.92;                                   ! Visible Absorptance

OS:ComponentCost:LineItem,
  {ab7c3f46-29f6-4eb0-9caa-075e7b7ef9f9}, ! Handle
  90.1-1999 Nonres B15 Ext Wall Wood-Framed and Other, ! Name
  ,                                       ! Type
  Construction,                           ! Line Item Type
  90.1-1999 Nonres B15 Ext Wall Wood-Framed and Other, ! Item Name
  ,                                       ! Object End Use Key
  ,                                       ! Quantity {dimensionless}
  73.056,                                 ! Material Cost {$}
  CostPerArea;                            ! Material Cost Units

