
OS:Version,
  {41795ef6-f9cb-42b8-a79c-e684b19f33fa}, ! Handle
  0.9.3;                                  ! Version Identifier

OS:Material,
  {d9cca2cb-4272-4c1a-9804-feb9d7054f8e}, ! Handle
  Roof Insulation [22],                   ! Name
  MediumRough,                            ! Roughness
  0.23578,                                ! Thickness {m}
  0.049,                                  ! Conductivity {W/m-K}
  265,                                    ! Density {kg/m3}
  836.8,                                  ! Specific Heat {J/kg-K}
  0.9,                                    ! Thermal Absorptance
  0.7,                                    ! Solar Absorptance
  0.7;                                    ! Visible Absorptance

OS:Construction,
  {29540e9a-0345-4687-a32a-be2ea3cc15b7}, ! Handle
  189.1-2009 Nonres 3A Roof Metal Building, ! Name
  ,                                       ! Surface Rendering Name
  {ca501893-0983-4feb-9c79-e041d90fc105}, ! Layer 1
  {d9cca2cb-4272-4c1a-9804-feb9d7054f8e}; ! Layer 2

OS:Material,
  {ca501893-0983-4feb-9c79-e041d90fc105}, ! Handle
  Metal Roofing,                          ! Name
  MediumSmooth,                           ! Roughness
  0.001524,                               ! Thickness {m}
  45.006,                                 ! Conductivity {W/m-K}
  7680,                                   ! Density {kg/m3}
  418.4,                                  ! Specific Heat {J/kg-K}
  0.9,                                    ! Thermal Absorptance
  0.7,                                    ! Solar Absorptance
  0.3;                                    ! Visible Absorptance

OS:ComponentCost:LineItem,
  {c69adea7-ed24-417b-bfd5-d3edc8bd9044}, ! Handle
  189.1-2009 Nonres 3A Roof Metal Building, ! Name
  ,                                       ! Type
  Construction,                           ! Line Item Type
  189.1-2009 Nonres 3A Roof Metal Building, ! Item Name
  ,                                       ! Object End Use Key
  ,                                       ! Quantity {dimensionless}
  47.657,                                 ! Material Cost {$}
  CostPerArea;                            ! Material Cost Units

