
OS:Version,
  {8c362bcb-0987-48d5-a4cb-2894f75ab0c8}, ! Handle
  0.9.3;                                  ! Version Identifier

OS:ComponentCost:LineItem,
  {b7f836e3-1b95-4465-8ead-b32eb6971dbc}, ! Handle
  90.1-2004 Nonres 4B Roof Metal Building, ! Name
  ,                                       ! Type
  Construction,                           ! Line Item Type
  90.1-2004 Nonres 4B Roof Metal Building, ! Item Name
  ,                                       ! Object End Use Key
  ,                                       ! Quantity {dimensionless}
  38.206,                                 ! Material Cost {$}
  CostPerArea;                            ! Material Cost Units

OS:Construction,
  {f3c72735-656c-42aa-9d7a-ee83598aa447}, ! Handle
  90.1-2004 Nonres 4B Roof Metal Building, ! Name
  ,                                       ! Surface Rendering Name
  {cb5750cb-12ba-4c9a-84d0-ef6ab23265c5}, ! Layer 1
  {193c293d-00cf-40bc-86c6-695cdb3b1953}; ! Layer 2

OS:Material,
  {cb5750cb-12ba-4c9a-84d0-ef6ab23265c5}, ! Handle
  Metal Roofing,                          ! Name
  MediumSmooth,                           ! Roughness
  0.001524,                               ! Thickness {m}
  45.006,                                 ! Conductivity {W/m-K}
  7680,                                   ! Density {kg/m3}
  418.4,                                  ! Specific Heat {J/kg-K}
  0.9,                                    ! Thermal Absorptance
  0.7,                                    ! Solar Absorptance
  0.3;                                    ! Visible Absorptance

OS:Material,
  {193c293d-00cf-40bc-86c6-695cdb3b1953}, ! Handle
  Roof Insulation [1],                    ! Name
  MediumRough,                            ! Roughness
  0.123533,                               ! Thickness {m}
  0.049,                                  ! Conductivity {W/m-K}
  265,                                    ! Density {kg/m3}
  836.8,                                  ! Specific Heat {J/kg-K}
  0.9,                                    ! Thermal Absorptance
  0.7,                                    ! Solar Absorptance
  0.7;                                    ! Visible Absorptance

