
OS:Version,
  {71476513-b35f-41f4-a17f-a75ae567b7e5}, ! Handle
  0.9.3;                                  ! Version Identifier

OS:WindowMaterial:Glazing,
  {a1dac0a4-6b7f-4719-9e8b-138ed1cdd26e}, ! Handle
  Theoretical Glass [32],                 ! Name
  SpectralAverage,                        ! Optical Data Type
  ,                                       ! Window Glass Spectral Data Set Name
  0.003,                                  ! Thickness {m}
  0.481761,                               ! Solar Transmittance at Normal Incidence
  0.468239,                               ! Front Side Solar Reflectance at Normal Incidence
  0.468239,                               ! Back Side Solar Reflectance at Normal Incidence
  0.529698,                               ! Visible Transmittance at Normal Incidence
  0.420302,                               ! Front Side Visible Reflectance at Normal Incidence
  0.420302,                               ! Back Side Visible Reflectance at Normal Incidence
  0,                                      ! Infrared Transmittance at Normal Incidence
  0.9,                                    ! Front Side Infrared Hemispherical Emissivity
  0.9,                                    ! Back Side Infrared Hemispherical Emissivity
  0.03026;                                ! Conductivity {W/m-K}

OS:ComponentCost:LineItem,
  {a9453656-46a0-465f-b4a0-ac5225069e1e}, ! Handle
  90.1-1999 Nonres B19 Skylight without Curb, ! Name
  ,                                       ! Type
  Construction,                           ! Line Item Type
  90.1-1999 Nonres B19 Skylight without Curb, ! Item Name
  ,                                       ! Object End Use Key
  ,                                       ! Quantity {dimensionless}
  514.818,                                ! Material Cost {$}
  CostPerArea;                            ! Material Cost Units

OS:Construction,
  {6bfddcde-5142-4481-b376-726288348966}, ! Handle
  90.1-1999 Nonres B19 Skylight without Curb, ! Name
  ,                                       ! Surface Rendering Name
  {a1dac0a4-6b7f-4719-9e8b-138ed1cdd26e}; ! Layer 1

