
OS:Version,
  {0a13af86-9721-4e2b-be30-c37062ee1972}, ! Handle
  0.9.3;                                  ! Version Identifier

OS:Construction,
  {70b3ba06-6076-4d12-a131-315814025f4c}, ! Handle
  90.1-1999 Nonres B19 Skylight without Curb, ! Name
  ,                                       ! Surface Rendering Name
  {8e6bc6f9-3531-4ee2-88eb-236286bfcab3}; ! Layer 1

OS:WindowMaterial:Glazing,
  {8e6bc6f9-3531-4ee2-88eb-236286bfcab3}, ! Handle
  Theoretical Glass [32],                 ! Name
  SpectralAverage,                        ! Optical Data Type
  ,                                       ! Window Glass Spectral Data Set Name
  0.003,                                  ! Thickness {m}
  0.481761,                               ! Solar Transmittance at Normal Incidence
  0.468239,                               ! Front Side Solar Reflectance at Normal Incidence
  0.468239,                               ! Back Side Solar Reflectance at Normal Incidence
  0.529698,                               ! Visible Transmittance at Normal Incidence
  0.420302,                               ! Front Side Visible Reflectance at Normal Incidence
  0.420302,                               ! Back Side Visible Reflectance at Normal Incidence
  0,                                      ! Infrared Transmittance at Normal Incidence
  0.9,                                    ! Front Side Infrared Hemispherical Emissivity
  0.9,                                    ! Back Side Infrared Hemispherical Emissivity
  0.03026;                                ! Conductivity {W/m-K}

OS:ComponentCost:LineItem,
  {f68c54f3-34db-4ef6-9978-7df5895a0cdd}, ! Handle
  90.1-1999 Nonres B19 Skylight without Curb, ! Name
  ,                                       ! Type
  Construction,                           ! Line Item Type
  90.1-1999 Nonres B19 Skylight without Curb, ! Item Name
  ,                                       ! Object End Use Key
  ,                                       ! Quantity {dimensionless}
  514.818,                                ! Material Cost {$}
  CostPerArea;                            ! Material Cost Units

OS:ComponentData,
  {b137876d-3259-416d-9723-0665436ebb94}, ! Handle
  Component Data 1,                       ! Name
  {3c18ecde-5468-496e-8425-e643c6edc17e}, ! UUID
  {5bd73c13-da31-4492-9620-62502b7cfb94}, ! Version UUID
  1363981127,                             ! Creation Timestamp
  1363981127,                             ! Version Timestamp
  {70b3ba06-6076-4d12-a131-315814025f4c}, ! Name of Object 1
  {8e6bc6f9-3531-4ee2-88eb-236286bfcab3}, ! Name of Object 2
  {f68c54f3-34db-4ef6-9978-7df5895a0cdd}; ! Name of Object 3

