
OS:Version,
  {cd6b6d33-a774-4559-ac04-d4c0d4d9762f}, ! Handle
  0.9.3;                                  ! Version Identifier

OS:Construction,
  {6364d996-ab37-4324-93bf-ad6952d84f4a}, ! Handle
  90.1-2004 Nonres 3A Ext Slab Unheated - 8in Slab without Carpet, ! Name
  ,                                       ! Surface Rendering Name
  {c82d5197-d57d-468b-802a-1289b54551c2}; ! Layer 1

OS:Material,
  {c82d5197-d57d-468b-802a-1289b54551c2}, ! Handle
  MAT-CC05 8 HW CONCRETE,                 ! Name
  Rough,                                  ! Roughness
  0.20321,                                ! Thickness {m}
  1.311,                                  ! Conductivity {W/m-K}
  2240,                                   ! Density {kg/m3}
  836.8,                                  ! Specific Heat {J/kg-K}
  0.9,                                    ! Thermal Absorptance
  0.7,                                    ! Solar Absorptance
  0.7;                                    ! Visible Absorptance

OS:ComponentCost:LineItem,
  {64a5c460-909f-447e-9a29-01a838363b57}, ! Handle
  90.1-2004 Nonres 3A Ext Slab Unheated - 8in Slab without Carpet, ! Name
  ,                                       ! Type
  Construction,                           ! Line Item Type
  90.1-2004 Nonres 3A Ext Slab Unheated - 8in Slab without Carpet, ! Item Name
  ,                                       ! Object End Use Key
  ,                                       ! Quantity {dimensionless}
  45.52,                                  ! Material Cost {$}
  CostPerArea;                            ! Material Cost Units

