
OS:Version,
  {0ae3520c-5b17-4b18-8b4e-1320cf16698b}, ! Handle
  0.9.3;                                  ! Version Identifier

OS:Construction,
  {c4415a2d-259b-478d-9c87-89a835051140}, ! Handle
  AEDG K12 Nonres 4B Roof IEAD,           ! Name
  ,                                       ! Surface Rendering Name
  {9e53f603-a7a4-4fce-b783-c6c88698d1f1}, ! Layer 1
  {65491678-c528-459c-bfd8-3947449ceca4}, ! Layer 2
  {38d3e432-41fc-4b5b-b59b-51d0a49fa581}; ! Layer 3

OS:Material,
  {9e53f603-a7a4-4fce-b783-c6c88698d1f1}, ! Handle
  Roof Membrane,                          ! Name
  VeryRough,                              ! Roughness
  0.0095,                                 ! Thickness {m}
  0.16,                                   ! Conductivity {W/m-K}
  1121.29,                                ! Density {kg/m3}
  1460,                                   ! Specific Heat {J/kg-K}
  0.9,                                    ! Thermal Absorptance
  0.7,                                    ! Solar Absorptance
  0.7;                                    ! Visible Absorptance

OS:Material,
  {65491678-c528-459c-bfd8-3947449ceca4}, ! Handle
  Roof Insulation,                        ! Name
  MediumRough,                            ! Roughness
  0.124958,                               ! Thickness {m}
  0.049,                                  ! Conductivity {W/m-K}
  265,                                    ! Density {kg/m3}
  836.8,                                  ! Specific Heat {J/kg-K}
  0.9,                                    ! Thermal Absorptance
  0.7,                                    ! Solar Absorptance
  0.7;                                    ! Visible Absorptance

OS:Material,
  {38d3e432-41fc-4b5b-b59b-51d0a49fa581}, ! Handle
  Metal Decking,                          ! Name
  MediumSmooth,                           ! Roughness
  0.001524,                               ! Thickness {m}
  45.006,                                 ! Conductivity {W/m-K}
  7680,                                   ! Density {kg/m3}
  418.4,                                  ! Specific Heat {J/kg-K}
  0.9,                                    ! Thermal Absorptance
  0.7,                                    ! Solar Absorptance
  0.3;                                    ! Visible Absorptance

OS:ComponentCost:LineItem,
  {a18f9ea2-f597-4591-b5da-536df64155f2}, ! Handle
  AEDG K12 Nonres 4B Roof IEAD,           ! Name
  ,                                       ! Type
  Construction,                           ! Line Item Type
  AEDG K12 Nonres 4B Roof IEAD,           ! Item Name
  ,                                       ! Object End Use Key
  ,                                       ! Quantity {dimensionless}
  98.49,                                  ! Material Cost {$}
  CostPerArea;                            ! Material Cost Units

