
OS:Version,
  {f179d046-f4f2-4dc0-8b3c-d56efbc92041}, ! Handle
  0.9.3;                                  ! Version Identifier

OS:Construction,
  {c2d90e4f-7848-4870-8203-c924436bc2ac}, ! Handle
  90.1-1999 Res B9 Ext Slab Unheated - 8in Slab without Carpet, ! Name
  ,                                       ! Surface Rendering Name
  {5f61eeee-96ae-4f07-a030-820bb20718dd}; ! Layer 1

OS:Material,
  {5f61eeee-96ae-4f07-a030-820bb20718dd}, ! Handle
  MAT-CC05 8 HW CONCRETE,                 ! Name
  Rough,                                  ! Roughness
  0.20321,                                ! Thickness {m}
  1.311,                                  ! Conductivity {W/m-K}
  2240,                                   ! Density {kg/m3}
  836.8,                                  ! Specific Heat {J/kg-K}
  0.9,                                    ! Thermal Absorptance
  0.7,                                    ! Solar Absorptance
  0.7;                                    ! Visible Absorptance

OS:ComponentCost:LineItem,
  {ba191a50-c6b4-441a-ae31-4ba2e109f964}, ! Handle
  90.1-1999 Res B9 Ext Slab Unheated - 8in Slab without Carpet, ! Name
  ,                                       ! Type
  Construction,                           ! Line Item Type
  90.1-1999 Res B9 Ext Slab Unheated - 8in Slab without Carpet, ! Item Name
  ,                                       ! Object End Use Key
  ,                                       ! Quantity {dimensionless}
  45.52,                                  ! Material Cost {$}
  CostPerArea;                            ! Material Cost Units

OS:ComponentData,
  {453ebf2c-bda5-40e7-af29-f69bfd0f295e}, ! Handle
  Component Data 1,                       ! Name
  {43acfa78-99b1-4d6d-bc39-055f3136f045}, ! UUID
  {caafd896-c885-476d-8830-6a482a0e3d8b}, ! Version UUID
  1363981201,                             ! Creation Timestamp
  1363981201,                             ! Version Timestamp
  {c2d90e4f-7848-4870-8203-c924436bc2ac}, ! Name of Object 1
  {5f61eeee-96ae-4f07-a030-820bb20718dd}, ! Name of Object 2
  {ba191a50-c6b4-441a-ae31-4ba2e109f964}; ! Name of Object 3

