
OS:Version,
  {77f999f4-ee8a-4c70-b56e-9658aaa06134}, !- Handle
  1.0.6;                                  !- Version Identifier

OS:WindowMaterial:Glazing,
  {a038980f-792a-4827-98c5-5cbd65a3b273}, !- Handle
  189.1-2011 NONRES 6B NONMETAL FRAMING THEORETICAL GLAZING, !- Name
  SpectralAverage,                        !- Optical Data Type
  ,                                       !- Window Glass Spectral Data Set Name
  0.04563,                                !- Thickness {m}
  0.31435,                                !- Solar Transmittance at Normal Incidence
  0.49272,                                !- Front Side Solar Reflectance at Normal Incidence
  0.49272,                                !- Back Side Solar Reflectance at Normal Incidence
  0.31435,                                !- Visible Transmittance at Normal Incidence
  0.49272,                                !- Front Side Visible Reflectance at Normal Incidence
  0.49272,                                !- Back Side Visible Reflectance at Normal Incidence
  0,                                      !- Infrared Transmittance at Normal Incidence
  0.84,                                   !- Front Side Infrared Hemispherical Emissivity
  0.84,                                   !- Back Side Infrared Hemispherical Emissivity
  0.08632,                                !- Conductivity {W/m-K}
  1,                                      !- Dirt Correction Factor for Solar and Visible Transmittance
  No;                                     !- Solar Diffusing

OS:Construction,
  {9ca19ad3-0e3f-46dc-ad2b-573974c7a433}, !- Handle
  189.1-2011 NONRES 6B NONMETAL FRAMING,  !- Name
  ,                                       !- Surface Rendering Name
  {a038980f-792a-4827-98c5-5cbd65a3b273}; !- Layer 1

