
OS:Version,
  {8a368dbe-45ef-430d-b463-e50a6801fc45}, !- Handle
  1.0.6;                                  !- Version Identifier

OS:Construction,
  {a1ea5503-39a2-4830-b18f-450744f5a3bf}, !- Handle
  189.1-2011 NONRES 6B NONMETAL FRAMING,  !- Name
  ,                                       !- Surface Rendering Name
  {eb32dc17-f110-445f-b0f7-c6a0463ca1cf}; !- Layer 1

OS:WindowMaterial:Glazing,
  {eb32dc17-f110-445f-b0f7-c6a0463ca1cf}, !- Handle
  189.1-2011 NONRES 6B NONMETAL FRAMING THEORETICAL GLAZING, !- Name
  SpectralAverage,                        !- Optical Data Type
  ,                                       !- Window Glass Spectral Data Set Name
  0.04563,                                !- Thickness {m}
  0.31435,                                !- Solar Transmittance at Normal Incidence
  0.49272,                                !- Front Side Solar Reflectance at Normal Incidence
  0.49272,                                !- Back Side Solar Reflectance at Normal Incidence
  0.31435,                                !- Visible Transmittance at Normal Incidence
  0.49272,                                !- Front Side Visible Reflectance at Normal Incidence
  0.49272,                                !- Back Side Visible Reflectance at Normal Incidence
  0,                                      !- Infrared Transmittance at Normal Incidence
  0.84,                                   !- Front Side Infrared Hemispherical Emissivity
  0.84,                                   !- Back Side Infrared Hemispherical Emissivity
  0.08632,                                !- Conductivity {W/m-K}
  1,                                      !- Dirt Correction Factor for Solar and Visible Transmittance
  No;                                     !- Solar Diffusing

OS:ComponentData,
  {820fcd1b-b47f-4ecc-a98f-cef0cd235032}, !- Handle
  Component Data 1,                       !- Name
  {1cdd6cbe-50d4-4945-9e3f-886eda245a48}, !- UUID
  {f76eb503-571c-4a34-80c1-72db97dab564}, !- Version UUID
  1380911254,                             !- Creation Timestamp
  1380911254,                             !- Version Timestamp
  {a1ea5503-39a2-4830-b18f-450744f5a3bf}, !- Name of Object 1
  {eb32dc17-f110-445f-b0f7-c6a0463ca1cf}; !- Name of Object 2

