
OS:Version,
  {edf678f2-7d62-4dec-8b8c-d2c741c0fa56}, ! Handle
  0.9.3;                                  ! Version Identifier

OS:Material,
  {00a7e9ef-4d62-41f4-b838-9d0f5a161832}, ! Handle
  Wall Insulation [8],                    ! Name
  MediumRough,                            ! Roughness
  0.067929,                               ! Thickness {m}
  0.0432,                                 ! Conductivity {W/m-K}
  91,                                     ! Density {kg/m3}
  837,                                    ! Specific Heat {J/kg-K}
  0.9,                                    ! Thermal Absorptance
  0.5,                                    ! Solar Absorptance
  0.5;                                    ! Visible Absorptance

OS:Material,
  {b4b4a817-ba21-4fd8-bea1-a63cb5d1d298}, ! Handle
  8IN Concrete HW,                        ! Name
  MediumRough,                            ! Roughness
  0.2033,                                 ! Thickness {m}
  1.7296,                                 ! Conductivity {W/m-K}
  2243,                                   ! Density {kg/m3}
  837,                                    ! Specific Heat {J/kg-K}
  0.9,                                    ! Thermal Absorptance
  0.65,                                   ! Solar Absorptance
  0.65;                                   ! Visible Absorptance

OS:ComponentCost:LineItem,
  {507972c6-648a-4acc-ac2e-6741cfa2547c}, ! Handle
  90.1-2004 Res 6B Ext Wall Mass,         ! Name
  ,                                       ! Type
  Construction,                           ! Line Item Type
  90.1-2004 Res 6B Ext Wall Mass,         ! Item Name
  ,                                       ! Object End Use Key
  ,                                       ! Quantity {dimensionless}
  65.826,                                 ! Material Cost {$}
  CostPerArea;                            ! Material Cost Units

OS:Construction,
  {4f0e9e6f-4931-48d8-a1a7-04c2f992f819}, ! Handle
  90.1-2004 Res 6B Ext Wall Mass,         ! Name
  ,                                       ! Surface Rendering Name
  {3b33ccdd-2e97-44c7-8551-f2a7aef91dfa}, ! Layer 1
  {b4b4a817-ba21-4fd8-bea1-a63cb5d1d298}, ! Layer 2
  {00a7e9ef-4d62-41f4-b838-9d0f5a161832}, ! Layer 3
  {d9c24a03-16b9-4d71-bf32-cb3c5cd74eae}; ! Layer 4

OS:Material,
  {3b33ccdd-2e97-44c7-8551-f2a7aef91dfa}, ! Handle
  1IN Stucco,                             ! Name
  Smooth,                                 ! Roughness
  0.0253,                                 ! Thickness {m}
  0.6918,                                 ! Conductivity {W/m-K}
  1858,                                   ! Density {kg/m3}
  837,                                    ! Specific Heat {J/kg-K}
  0.9,                                    ! Thermal Absorptance
  0.92,                                   ! Solar Absorptance
  0.92;                                   ! Visible Absorptance

OS:Material,
  {d9c24a03-16b9-4d71-bf32-cb3c5cd74eae}, ! Handle
  1/2IN Gypsum,                           ! Name
  Smooth,                                 ! Roughness
  0.01271,                                ! Thickness {m}
  0.16,                                   ! Conductivity {W/m-K}
  784.9,                                  ! Density {kg/m3}
  830,                                    ! Specific Heat {J/kg-K}
  0.9,                                    ! Thermal Absorptance
  0.92,                                   ! Solar Absorptance
  0.92;                                   ! Visible Absorptance

