
OS:Version,
  {078030e3-ca11-4faf-978f-9bac34203964}, ! Handle
  0.9.3;                                  ! Version Identifier

OS:Construction,
  {506dd7e6-afd2-4696-8cd3-d2ecf7c88f17}, ! Handle
  Title 24-2008 Nonres 9 Ext Slab Unheated - 8in Slab with Carpet, ! Name
  ,                                       ! Surface Rendering Name
  {cbb4c49b-ca5e-4646-8d13-a02a80a0c14b}, ! Layer 1
  {368fe49a-e0d9-426d-8452-2bef53135c19}; ! Layer 2

OS:Material,
  {cbb4c49b-ca5e-4646-8d13-a02a80a0c14b}, ! Handle
  MAT-CC05 8 HW CONCRETE,                 ! Name
  Rough,                                  ! Roughness
  0.20321,                                ! Thickness {m}
  1.311,                                  ! Conductivity {W/m-K}
  2240,                                   ! Density {kg/m3}
  836.8,                                  ! Specific Heat {J/kg-K}
  0.9,                                    ! Thermal Absorptance
  0.7,                                    ! Solar Absorptance
  0.7;                                    ! Visible Absorptance

OS:Material:NoMass,
  {368fe49a-e0d9-426d-8452-2bef53135c19}, ! Handle
  CP02 CARPET PAD,                        ! Name
  VeryRough,                              ! Roughness
  0.21648,                                ! Thermal Resistance {m2-K/W}
  0.9,                                    ! Thermal Absorptance
  0.7,                                    ! Solar Absorptance
  0.8;                                    ! Visible Absorptance

OS:ComponentCost:LineItem,
  {9ad82e6f-af5a-4877-9e7e-63e7d7063871}, ! Handle
  Title 24-2008 Nonres 9 Ext Slab Unheated - 8in Slab with Carpet, ! Name
  ,                                       ! Type
  Construction,                           ! Line Item Type
  Title 24-2008 Nonres 9 Ext Slab Unheated - 8in Slab with Carpet, ! Item Name
  ,                                       ! Object End Use Key
  ,                                       ! Quantity {dimensionless}
  45.52,                                  ! Material Cost {$}
  CostPerArea;                            ! Material Cost Units

