
OS:Version,
  {8ad0af6d-54bd-42b4-a7c5-68034c7114ef}, ! Handle
  0.9.3;                                  ! Version Identifier

OS:Construction,
  {e99d4f3f-1021-4460-bdac-92d93d508bf9}, ! Handle
  90.1-2007 Nonres 2A Roof Metal Building, ! Name
  ,                                       ! Surface Rendering Name
  {b098633f-d8ad-4cca-957a-340c8937112d}, ! Layer 1
  {9654e31c-97d6-4402-9acd-1a2c7129803d}; ! Layer 2

OS:Material,
  {b098633f-d8ad-4cca-957a-340c8937112d}, ! Handle
  Metal Roofing,                          ! Name
  MediumSmooth,                           ! Roughness
  0.001524,                               ! Thickness {m}
  45.006,                                 ! Conductivity {W/m-K}
  7680,                                   ! Density {kg/m3}
  418.4,                                  ! Specific Heat {J/kg-K}
  0.9,                                    ! Thermal Absorptance
  0.7,                                    ! Solar Absorptance
  0.3;                                    ! Visible Absorptance

OS:Material,
  {9654e31c-97d6-4402-9acd-1a2c7129803d}, ! Handle
  Roof Insulation [15],                   ! Name
  MediumRough,                            ! Roughness
  0.123565,                               ! Thickness {m}
  0.049,                                  ! Conductivity {W/m-K}
  265,                                    ! Density {kg/m3}
  836.8,                                  ! Specific Heat {J/kg-K}
  0.9,                                    ! Thermal Absorptance
  0.7,                                    ! Solar Absorptance
  0.7;                                    ! Visible Absorptance

OS:ComponentCost:LineItem,
  {4b7f8a44-f8fe-48de-998f-60f5d6d82062}, ! Handle
  90.1-2007 Nonres 2A Roof Metal Building, ! Name
  ,                                       ! Type
  Construction,                           ! Line Item Type
  90.1-2007 Nonres 2A Roof Metal Building, ! Item Name
  ,                                       ! Object End Use Key
  ,                                       ! Quantity {dimensionless}
  38.21,                                  ! Material Cost {$}
  CostPerArea;                            ! Material Cost Units

OS:ComponentData,
  {463fb745-cd54-4559-8dca-d5e91040cd8a}, ! Handle
  Component Data 1,                       ! Name
  {af6b7162-7355-44bf-a21c-b56ee4ac9663}, ! UUID
  {ee18f4b0-5e46-4d7c-bc58-5dac243f227c}, ! Version UUID
  1363981781,                             ! Creation Timestamp
  1363981781,                             ! Version Timestamp
  {e99d4f3f-1021-4460-bdac-92d93d508bf9}, ! Name of Object 1
  {b098633f-d8ad-4cca-957a-340c8937112d}, ! Name of Object 2
  {9654e31c-97d6-4402-9acd-1a2c7129803d}, ! Name of Object 3
  {4b7f8a44-f8fe-48de-998f-60f5d6d82062}; ! Name of Object 4

