
OS:Version,
  {f6feb411-ab29-4b02-a2ba-f7fa2232ea94}, ! Handle
  0.9.3;                                  ! Version Identifier

OS:ComponentCost:LineItem,
  {90d78d70-149a-4d92-a53c-3194b28a6fa5}, ! Handle
  90.1-2007 Nonres 2A Roof Metal Building, ! Name
  ,                                       ! Type
  Construction,                           ! Line Item Type
  90.1-2007 Nonres 2A Roof Metal Building, ! Item Name
  ,                                       ! Object End Use Key
  ,                                       ! Quantity {dimensionless}
  38.21,                                  ! Material Cost {$}
  CostPerArea;                            ! Material Cost Units

OS:Material,
  {ba65d99c-8929-4a88-81dd-a0127fb397c0}, ! Handle
  Metal Roofing,                          ! Name
  MediumSmooth,                           ! Roughness
  0.001524,                               ! Thickness {m}
  45.006,                                 ! Conductivity {W/m-K}
  7680,                                   ! Density {kg/m3}
  418.4,                                  ! Specific Heat {J/kg-K}
  0.9,                                    ! Thermal Absorptance
  0.7,                                    ! Solar Absorptance
  0.3;                                    ! Visible Absorptance

OS:Construction,
  {c1bb52cc-da32-4af7-8e2c-86602eb282ee}, ! Handle
  90.1-2007 Nonres 2A Roof Metal Building, ! Name
  ,                                       ! Surface Rendering Name
  {ba65d99c-8929-4a88-81dd-a0127fb397c0}, ! Layer 1
  {f537a426-9976-45f8-8b36-9aaffd1e583f}; ! Layer 2

OS:Material,
  {f537a426-9976-45f8-8b36-9aaffd1e583f}, ! Handle
  Roof Insulation [15],                   ! Name
  MediumRough,                            ! Roughness
  0.123565,                               ! Thickness {m}
  0.049,                                  ! Conductivity {W/m-K}
  265,                                    ! Density {kg/m3}
  836.8,                                  ! Specific Heat {J/kg-K}
  0.9,                                    ! Thermal Absorptance
  0.7,                                    ! Solar Absorptance
  0.7;                                    ! Visible Absorptance

