
OS:Version,
  {8345d197-2e84-426e-8c63-03e672ad4452}, ! Handle
  0.9.3;                                  ! Version Identifier

OS:Construction,
  {1d318f7d-f61f-4cec-8b7b-ffc319b0afb0}, ! Handle
  Title 24-2008 Nonres 14 Skylight Glass Skylight with Curb, ! Name
  ,                                       ! Surface Rendering Name
  {df3a9739-6c52-4425-9c42-43b0da5fdb92}; ! Layer 1

OS:WindowMaterial:Glazing,
  {df3a9739-6c52-4425-9c42-43b0da5fdb92}, ! Handle
  Theoretical Glass [665],                ! Name
  SpectralAverage,                        ! Optical Data Type
  ,                                       ! Window Glass Spectral Data Set Name
  0.003,                                  ! Thickness {m}
  0.347698,                               ! Solar Transmittance at Normal Incidence
  0.602302,                               ! Front Side Solar Reflectance at Normal Incidence
  0.602302,                               ! Back Side Solar Reflectance at Normal Incidence
  0.360158,                               ! Visible Transmittance at Normal Incidence
  0.589842,                               ! Front Side Visible Reflectance at Normal Incidence
  0.589842,                               ! Back Side Visible Reflectance at Normal Incidence
  0,                                      ! Infrared Transmittance at Normal Incidence
  0.91,                                   ! Front Side Infrared Hemispherical Emissivity
  0.91,                                   ! Back Side Infrared Hemispherical Emissivity
  0.387053;                               ! Conductivity {W/m-K}

OS:ComponentCost:LineItem,
  {8dbfef16-c61c-490a-890c-0343e1f9e9a7}, ! Handle
  Title 24-2008 Nonres 14 Skylight Glass Skylight with Curb, ! Name
  ,                                       ! Type
  Construction,                           ! Line Item Type
  Title 24-2008 Nonres 14 Skylight Glass Skylight with Curb, ! Item Name
  ,                                       ! Object End Use Key
  ,                                       ! Quantity {dimensionless}
  480.601,                                ! Material Cost {$}
  CostPerArea;                            ! Material Cost Units

OS:ComponentData,
  {d648b315-f3da-4326-b97a-e79303a002ba}, ! Handle
  Component Data 1,                       ! Name
  {473cd036-d5b8-45eb-9737-b2f74ca66a62}, ! UUID
  {810070cc-94bc-4c86-a719-c6799a2e08bc}, ! Version UUID
  1363982108,                             ! Creation Timestamp
  1363982108,                             ! Version Timestamp
  {1d318f7d-f61f-4cec-8b7b-ffc319b0afb0}, ! Name of Object 1
  {df3a9739-6c52-4425-9c42-43b0da5fdb92}, ! Name of Object 2
  {8dbfef16-c61c-490a-890c-0343e1f9e9a7}; ! Name of Object 3

