
OS:Version,
  {a422c67c-85a1-4331-bfd6-ee95228db219}, ! Handle
  0.9.3;                                  ! Version Identifier

OS:Construction,
  {37608200-8281-4b99-b44d-bc99df6ebf89}, ! Handle
  Title 24-2008 Nonres 14 Skylight Glass Skylight with Curb, ! Name
  ,                                       ! Surface Rendering Name
  {c65969e8-9783-47d4-b402-f812c3ceb1b7}; ! Layer 1

OS:WindowMaterial:Glazing,
  {c65969e8-9783-47d4-b402-f812c3ceb1b7}, ! Handle
  Theoretical Glass [665],                ! Name
  SpectralAverage,                        ! Optical Data Type
  ,                                       ! Window Glass Spectral Data Set Name
  0.003,                                  ! Thickness {m}
  0.347698,                               ! Solar Transmittance at Normal Incidence
  0.602302,                               ! Front Side Solar Reflectance at Normal Incidence
  0.602302,                               ! Back Side Solar Reflectance at Normal Incidence
  0.360158,                               ! Visible Transmittance at Normal Incidence
  0.589842,                               ! Front Side Visible Reflectance at Normal Incidence
  0.589842,                               ! Back Side Visible Reflectance at Normal Incidence
  0,                                      ! Infrared Transmittance at Normal Incidence
  0.91,                                   ! Front Side Infrared Hemispherical Emissivity
  0.91,                                   ! Back Side Infrared Hemispherical Emissivity
  0.387053;                               ! Conductivity {W/m-K}

OS:ComponentCost:LineItem,
  {14c5914a-93eb-4c48-85e3-099fda8302f5}, ! Handle
  Title 24-2008 Nonres 14 Skylight Glass Skylight with Curb, ! Name
  ,                                       ! Type
  Construction,                           ! Line Item Type
  Title 24-2008 Nonres 14 Skylight Glass Skylight with Curb, ! Item Name
  ,                                       ! Object End Use Key
  ,                                       ! Quantity {dimensionless}
  480.601,                                ! Material Cost {$}
  CostPerArea;                            ! Material Cost Units

