
OS:Version,
  {5b43c7eb-758f-405c-9f3b-a2663f00d4fe}, ! Handle
  0.9.3;                                  ! Version Identifier

OS:Construction,
  {fd595a35-a140-4590-937a-d75c7468f93f}, ! Handle
  90.1-2001 Res B16 Roof IEAD,            ! Name
  ,                                       ! Surface Rendering Name
  {eeaf412b-a1ef-4e36-9bd8-1c55a275a9bb}, ! Layer 1
  {a8b1dcd3-1317-49af-ac2c-ac31f9c8e02e}, ! Layer 2
  {93943401-a647-42e7-b8f4-73f25b28b340}; ! Layer 3

OS:Material,
  {eeaf412b-a1ef-4e36-9bd8-1c55a275a9bb}, ! Handle
  Roof Membrane,                          ! Name
  VeryRough,                              ! Roughness
  0.0095,                                 ! Thickness {m}
  0.16,                                   ! Conductivity {W/m-K}
  1121.29,                                ! Density {kg/m3}
  1460,                                   ! Specific Heat {J/kg-K}
  0.9,                                    ! Thermal Absorptance
  0.7,                                    ! Solar Absorptance
  0.7;                                    ! Visible Absorptance

OS:Material,
  {a8b1dcd3-1317-49af-ac2c-ac31f9c8e02e}, ! Handle
  Roof Insulation,                        ! Name
  MediumRough,                            ! Roughness
  0.124958,                               ! Thickness {m}
  0.049,                                  ! Conductivity {W/m-K}
  265,                                    ! Density {kg/m3}
  836.8,                                  ! Specific Heat {J/kg-K}
  0.9,                                    ! Thermal Absorptance
  0.7,                                    ! Solar Absorptance
  0.7;                                    ! Visible Absorptance

OS:Material,
  {93943401-a647-42e7-b8f4-73f25b28b340}, ! Handle
  Metal Decking,                          ! Name
  MediumSmooth,                           ! Roughness
  0.001524,                               ! Thickness {m}
  45.006,                                 ! Conductivity {W/m-K}
  7680,                                   ! Density {kg/m3}
  418.4,                                  ! Specific Heat {J/kg-K}
  0.9,                                    ! Thermal Absorptance
  0.7,                                    ! Solar Absorptance
  0.3;                                    ! Visible Absorptance

OS:ComponentCost:LineItem,
  {8d095de4-2545-4926-8259-50c9f73bfb11}, ! Handle
  90.1-2001 Res B16 Roof IEAD,            ! Name
  ,                                       ! Type
  Construction,                           ! Line Item Type
  90.1-2001 Res B16 Roof IEAD,            ! Item Name
  ,                                       ! Object End Use Key
  ,                                       ! Quantity {dimensionless}
  49.208,                                 ! Material Cost {$}
  CostPerArea;                            ! Material Cost Units

OS:ComponentData,
  {2ab61567-9280-43a1-998f-2c7c800ac1dc}, ! Handle
  Component Data 1,                       ! Name
  {0d3dd6d1-7c0c-4f65-bc8c-c4d9e189b3e5}, ! UUID
  {53afbc67-adef-4691-8187-4fc895b653ac}, ! Version UUID
  1363981541,                             ! Creation Timestamp
  1363981541,                             ! Version Timestamp
  {fd595a35-a140-4590-937a-d75c7468f93f}, ! Name of Object 1
  {eeaf412b-a1ef-4e36-9bd8-1c55a275a9bb}, ! Name of Object 2
  {a8b1dcd3-1317-49af-ac2c-ac31f9c8e02e}, ! Name of Object 3
  {93943401-a647-42e7-b8f4-73f25b28b340}, ! Name of Object 4
  {8d095de4-2545-4926-8259-50c9f73bfb11}; ! Name of Object 5

