
OS:Version,
  {166bf8e8-52a9-49b7-a259-e978d388ee54}, ! Handle
  0.9.3;                                  ! Version Identifier

OS:Material,
  {bab24dcf-2f37-4fcf-9c33-bb1b75483c1b}, ! Handle
  Roof Insulation,                        ! Name
  MediumRough,                            ! Roughness
  0.124958,                               ! Thickness {m}
  0.049,                                  ! Conductivity {W/m-K}
  265,                                    ! Density {kg/m3}
  836.8,                                  ! Specific Heat {J/kg-K}
  0.9,                                    ! Thermal Absorptance
  0.7,                                    ! Solar Absorptance
  0.7;                                    ! Visible Absorptance

OS:ComponentCost:LineItem,
  {f56508f7-a561-4053-9ce3-52545ae652d6}, ! Handle
  90.1-2001 Res B16 Roof IEAD,            ! Name
  ,                                       ! Type
  Construction,                           ! Line Item Type
  90.1-2001 Res B16 Roof IEAD,            ! Item Name
  ,                                       ! Object End Use Key
  ,                                       ! Quantity {dimensionless}
  49.208,                                 ! Material Cost {$}
  CostPerArea;                            ! Material Cost Units

OS:Material,
  {3db20704-c67b-4a1f-977f-c84c22770cad}, ! Handle
  Metal Decking,                          ! Name
  MediumSmooth,                           ! Roughness
  0.001524,                               ! Thickness {m}
  45.006,                                 ! Conductivity {W/m-K}
  7680,                                   ! Density {kg/m3}
  418.4,                                  ! Specific Heat {J/kg-K}
  0.9,                                    ! Thermal Absorptance
  0.7,                                    ! Solar Absorptance
  0.3;                                    ! Visible Absorptance

OS:Construction,
  {47950ad3-e4c3-4ed8-bcf1-25d70f231f36}, ! Handle
  90.1-2001 Res B16 Roof IEAD,            ! Name
  ,                                       ! Surface Rendering Name
  {750709d7-d94e-4d61-a860-dc92ce85a644}, ! Layer 1
  {bab24dcf-2f37-4fcf-9c33-bb1b75483c1b}, ! Layer 2
  {3db20704-c67b-4a1f-977f-c84c22770cad}; ! Layer 3

OS:Material,
  {750709d7-d94e-4d61-a860-dc92ce85a644}, ! Handle
  Roof Membrane,                          ! Name
  VeryRough,                              ! Roughness
  0.0095,                                 ! Thickness {m}
  0.16,                                   ! Conductivity {W/m-K}
  1121.29,                                ! Density {kg/m3}
  1460,                                   ! Specific Heat {J/kg-K}
  0.9,                                    ! Thermal Absorptance
  0.7,                                    ! Solar Absorptance
  0.7;                                    ! Visible Absorptance

