
OS:Version,
  {2c98d507-45d4-459a-a0ff-ba5450f81aef}, ! Handle
  0.9.3;                                  ! Version Identifier

OS:Material,
  {a71e91c1-69f0-4dcb-89f8-b9b45e028645}, ! Handle
  Metal Decking,                          ! Name
  MediumSmooth,                           ! Roughness
  0.001524,                               ! Thickness {m}
  45.006,                                 ! Conductivity {W/m-K}
  7680,                                   ! Density {kg/m3}
  418.4,                                  ! Specific Heat {J/kg-K}
  0.9,                                    ! Thermal Absorptance
  0.7,                                    ! Solar Absorptance
  0.3;                                    ! Visible Absorptance

OS:Material,
  {0bb0d55e-03dc-49c0-bf16-061cd932927f}, ! Handle
  Roof Insulation [31],                   ! Name
  MediumRough,                            ! Roughness
  0.209546,                               ! Thickness {m}
  0.049,                                  ! Conductivity {W/m-K}
  265,                                    ! Density {kg/m3}
  836.8,                                  ! Specific Heat {J/kg-K}
  0.9,                                    ! Thermal Absorptance
  0.7,                                    ! Solar Absorptance
  0.7;                                    ! Visible Absorptance

OS:Construction,
  {91ef5ddc-40db-4bbc-8e34-2e8578baa612}, ! Handle
  Title 24-2008 Nonres 13 Roof IEAD,      ! Name
  ,                                       ! Surface Rendering Name
  {23ccbf10-2f28-4f28-a5ce-63ce407db569}, ! Layer 1
  {0bb0d55e-03dc-49c0-bf16-061cd932927f}, ! Layer 2
  {a71e91c1-69f0-4dcb-89f8-b9b45e028645}; ! Layer 3

OS:Material,
  {23ccbf10-2f28-4f28-a5ce-63ce407db569}, ! Handle
  Roof Membrane [2],                      ! Name
  VeryRough,                              ! Roughness
  0.0095,                                 ! Thickness {m}
  0.16,                                   ! Conductivity {W/m-K}
  1121.29,                                ! Density {kg/m3}
  1460,                                   ! Specific Heat {J/kg-K}
  0.9,                                    ! Thermal Absorptance
  0.7,                                    ! Solar Absorptance
  0.85;                                   ! Visible Absorptance

OS:ComponentCost:LineItem,
  {60e54ae5-7caf-49ad-93db-5aa6e88ffc0d}, ! Handle
  Title 24-2008 Nonres 13 Roof IEAD,      ! Name
  ,                                       ! Type
  Construction,                           ! Line Item Type
  Title 24-2008 Nonres 13 Roof IEAD,      ! Item Name
  ,                                       ! Object End Use Key
  ,                                       ! Quantity {dimensionless}
  56.579,                                 ! Material Cost {$}
  CostPerArea;                            ! Material Cost Units

