
OS:Version,
  {057da90d-9d48-4341-8f36-f3addc7f46a1}, ! Handle
  0.9.3;                                  ! Version Identifier

OS:Material,
  {2ff61951-afc6-4775-ac50-739daea336bf}, ! Handle
  Roof Insulation [5],                    ! Name
  MediumRough,                            ! Roughness
  0.286906,                               ! Thickness {m}
  0.049,                                  ! Conductivity {W/m-K}
  265,                                    ! Density {kg/m3}
  836.8,                                  ! Specific Heat {J/kg-K}
  0.9,                                    ! Thermal Absorptance
  0.7,                                    ! Solar Absorptance
  0.7;                                    ! Visible Absorptance

OS:Material,
  {c76804bb-b271-489e-958f-08b54a7fdf0f}, ! Handle
  1/2IN Gypsum,                           ! Name
  Smooth,                                 ! Roughness
  0.01271,                                ! Thickness {m}
  0.16,                                   ! Conductivity {W/m-K}
  784.9,                                  ! Density {kg/m3}
  830,                                    ! Specific Heat {J/kg-K}
  0.9,                                    ! Thermal Absorptance
  0.92,                                   ! Solar Absorptance
  0.92;                                   ! Visible Absorptance

OS:Material,
  {fc1b0270-2f4d-4079-8591-304d9dc587bb}, ! Handle
  1IN Wood Decking,                       ! Name
  MediumSmooth,                           ! Roughness
  0.0254,                                 ! Thickness {m}
  0.1211,                                 ! Conductivity {W/m-K}
  593,                                    ! Density {kg/m3}
  2510,                                   ! Specific Heat {J/kg-K}
  0.9,                                    ! Thermal Absorptance
  0.78,                                   ! Solar Absorptance
  0.78;                                   ! Visible Absorptance

OS:Construction,
  {3a13ce93-3c30-4996-9e5b-5c94af8900cd}, ! Handle
  90.1-1999 Res B21 Roof Attic and Other, ! Name
  ,                                       ! Surface Rendering Name
  {6c8cae16-1331-4a79-b0a7-244fc18621d0}, ! Layer 1
  {fc1b0270-2f4d-4079-8591-304d9dc587bb}, ! Layer 2
  {2ff61951-afc6-4775-ac50-739daea336bf}, ! Layer 3
  {c76804bb-b271-489e-958f-08b54a7fdf0f}; ! Layer 4

OS:Material,
  {6c8cae16-1331-4a79-b0a7-244fc18621d0}, ! Handle
  Wood Shingles,                          ! Name
  VeryRough,                              ! Roughness
  0.0178,                                 ! Thickness {m}
  0.115,                                  ! Conductivity {W/m-K}
  513,                                    ! Density {kg/m3}
  1255,                                   ! Specific Heat {J/kg-K}
  0.9,                                    ! Thermal Absorptance
  0.78,                                   ! Solar Absorptance
  0.78;                                   ! Visible Absorptance

OS:ComponentCost:LineItem,
  {2c39ac74-db19-4bd6-9f12-f9f08e4cb98c}, ! Handle
  90.1-1999 Res B21 Roof Attic and Other, ! Name
  ,                                       ! Type
  Construction,                           ! Line Item Type
  90.1-1999 Res B21 Roof Attic and Other, ! Item Name
  ,                                       ! Object End Use Key
  ,                                       ! Quantity {dimensionless}
  34.757,                                 ! Material Cost {$}
  CostPerArea;                            ! Material Cost Units

