
OS:Version,
  {f028ba31-16fe-4930-9485-682bb0a7fc0c}, ! Handle
  0.9.3;                                  ! Version Identifier

OS:Construction,
  {2cf8bb91-9cd3-4cbb-bde2-1a7b129000cc}, ! Handle
  90.1-2001 Nonres B5 Ext Wall Metal Building, ! Name
  ,                                       ! Surface Rendering Name
  {d6fd7ecf-7472-44fc-8b82-5985869af355}, ! Layer 1
  {13203614-8e3b-49c0-951f-bde743443524}, ! Layer 2
  {e2e73a18-e644-46af-b76e-80bb1c942604}; ! Layer 3

OS:Material,
  {d6fd7ecf-7472-44fc-8b82-5985869af355}, ! Handle
  Metal Siding,                           ! Name
  Smooth,                                 ! Roughness
  0.0015,                                 ! Thickness {m}
  44.96,                                  ! Conductivity {W/m-K}
  7688.86,                                ! Density {kg/m3}
  410,                                    ! Specific Heat {J/kg-K}
  0.9,                                    ! Thermal Absorptance
  0.2,                                    ! Solar Absorptance
  0.2;                                    ! Visible Absorptance

OS:Material,
  {13203614-8e3b-49c0-951f-bde743443524}, ! Handle
  Wall Insulation,                        ! Name
  MediumRough,                            ! Roughness
  0.0598725,                              ! Thickness {m}
  0.045,                                  ! Conductivity {W/m-K}
  265,                                    ! Density {kg/m3}
  836.8,                                  ! Specific Heat {J/kg-K}
  0.9,                                    ! Thermal Absorptance
  0.7,                                    ! Solar Absorptance
  0.7;                                    ! Visible Absorptance

OS:Material,
  {e2e73a18-e644-46af-b76e-80bb1c942604}, ! Handle
  1/2IN Gypsum,                           ! Name
  Smooth,                                 ! Roughness
  0.01271,                                ! Thickness {m}
  0.16,                                   ! Conductivity {W/m-K}
  784.9,                                  ! Density {kg/m3}
  830,                                    ! Specific Heat {J/kg-K}
  0.9,                                    ! Thermal Absorptance
  0.92,                                   ! Solar Absorptance
  0.92;                                   ! Visible Absorptance

OS:ComponentCost:LineItem,
  {83e1c830-b51b-4f7a-abe7-08eba956290e}, ! Handle
  90.1-2001 Nonres B5 Ext Wall Metal Building, ! Name
  ,                                       ! Type
  Construction,                           ! Line Item Type
  90.1-2001 Nonres B5 Ext Wall Metal Building, ! Item Name
  ,                                       ! Object End Use Key
  ,                                       ! Quantity {dimensionless}
  98.78,                                  ! Material Cost {$}
  CostPerArea;                            ! Material Cost Units

