
OS:Version,
  {1c1cc0fa-80b4-4914-a280-3b4e65ff1be0}, ! Handle
  0.9.3;                                  ! Version Identifier

OS:Construction,
  {894f3ed4-5975-4440-a8b6-7898087c843f}, ! Handle
  90.1-1999 Res B23 Window Fixed,         ! Name
  ,                                       ! Surface Rendering Name
  {f9bd80b2-c23b-468c-aeb4-3b254625ba5f}; ! Layer 1

OS:WindowMaterial:Glazing,
  {f9bd80b2-c23b-468c-aeb4-3b254625ba5f}, ! Handle
  Theoretical Glass [110],                ! Name
  SpectralAverage,                        ! Optical Data Type
  ,                                       ! Window Glass Spectral Data Set Name
  0.003,                                  ! Thickness {m}
  0.438713,                               ! Solar Transmittance at Normal Incidence
  0.511287,                               ! Front Side Solar Reflectance at Normal Incidence
  0.511287,                               ! Back Side Solar Reflectance at Normal Incidence
  0.460166,                               ! Visible Transmittance at Normal Incidence
  0.489834,                               ! Front Side Visible Reflectance at Normal Incidence
  0.489834,                               ! Back Side Visible Reflectance at Normal Incidence
  0,                                      ! Infrared Transmittance at Normal Incidence
  0.9,                                    ! Front Side Infrared Hemispherical Emissivity
  0.9,                                    ! Back Side Infrared Hemispherical Emissivity
  0.0089223;                              ! Conductivity {W/m-K}

OS:ComponentCost:LineItem,
  {6268e1e3-95d0-439f-a1d3-1bbb376d4862}, ! Handle
  90.1-1999 Res B23 Window Fixed,         ! Name
  ,                                       ! Type
  Construction,                           ! Line Item Type
  90.1-1999 Res B23 Window Fixed,         ! Item Name
  ,                                       ! Object End Use Key
  ,                                       ! Quantity {dimensionless}
  600.037,                                ! Material Cost {$}
  CostPerArea;                            ! Material Cost Units

OS:ComponentData,
  {4449b790-80ea-4cd8-90c9-520c49412d17}, ! Handle
  Component Data 1,                       ! Name
  {d61546e3-cf52-4a51-9762-78a340b18425}, ! UUID
  {88c03954-75d0-4aba-8e7d-8cebaa49f617}, ! Version UUID
  1363981268,                             ! Creation Timestamp
  1363981268,                             ! Version Timestamp
  {894f3ed4-5975-4440-a8b6-7898087c843f}, ! Name of Object 1
  {f9bd80b2-c23b-468c-aeb4-3b254625ba5f}, ! Name of Object 2
  {6268e1e3-95d0-439f-a1d3-1bbb376d4862}; ! Name of Object 3

