
OS:Version,
  {18d92319-f6c6-4d71-8aca-5b805e298b5c}, ! Handle
  0.9.3;                                  ! Version Identifier

OS:Construction,
  {c5ce923e-48ad-4178-a68a-4e1a2c8c4789}, ! Handle
  90.1-1999 Res B23 Window Fixed,         ! Name
  ,                                       ! Surface Rendering Name
  {cbe07e88-f222-416c-951b-ca80563789ac}; ! Layer 1

OS:WindowMaterial:Glazing,
  {cbe07e88-f222-416c-951b-ca80563789ac}, ! Handle
  Theoretical Glass [110],                ! Name
  SpectralAverage,                        ! Optical Data Type
  ,                                       ! Window Glass Spectral Data Set Name
  0.003,                                  ! Thickness {m}
  0.438713,                               ! Solar Transmittance at Normal Incidence
  0.511287,                               ! Front Side Solar Reflectance at Normal Incidence
  0.511287,                               ! Back Side Solar Reflectance at Normal Incidence
  0.460166,                               ! Visible Transmittance at Normal Incidence
  0.489834,                               ! Front Side Visible Reflectance at Normal Incidence
  0.489834,                               ! Back Side Visible Reflectance at Normal Incidence
  0,                                      ! Infrared Transmittance at Normal Incidence
  0.9,                                    ! Front Side Infrared Hemispherical Emissivity
  0.9,                                    ! Back Side Infrared Hemispherical Emissivity
  0.0089223;                              ! Conductivity {W/m-K}

OS:ComponentCost:LineItem,
  {72a3e33e-85c2-47e9-84e1-507fa16cdd04}, ! Handle
  90.1-1999 Res B23 Window Fixed,         ! Name
  ,                                       ! Type
  Construction,                           ! Line Item Type
  90.1-1999 Res B23 Window Fixed,         ! Item Name
  ,                                       ! Object End Use Key
  ,                                       ! Quantity {dimensionless}
  600.037,                                ! Material Cost {$}
  CostPerArea;                            ! Material Cost Units

