
OS:Version,
  {ab46667a-8fd0-4d94-88ce-59c0492c6392}, ! Handle
  0.9.3;                                  ! Version Identifier

OS:Construction,
  {5dc3459a-14cd-4527-bb20-a63db1864a40}, ! Handle
  AEDG-SmOffice 8A Ext Slab Unheated - 8in Slab without Carpet, ! Name
  ,                                       ! Surface Rendering Name
  {d076489c-d841-48e1-a674-e16d690f2a12}; ! Layer 1

OS:Material,
  {d076489c-d841-48e1-a674-e16d690f2a12}, ! Handle
  MAT-CC05 8 HW CONCRETE,                 ! Name
  Rough,                                  ! Roughness
  0.20321,                                ! Thickness {m}
  1.311,                                  ! Conductivity {W/m-K}
  2240,                                   ! Density {kg/m3}
  836.8,                                  ! Specific Heat {J/kg-K}
  0.9,                                    ! Thermal Absorptance
  0.7,                                    ! Solar Absorptance
  0.7;                                    ! Visible Absorptance

OS:ComponentCost:LineItem,
  {83289542-af87-4c8c-8882-7eac05c485d2}, ! Handle
  AEDG-SmOffice 8A Ext Slab Unheated - 8in Slab without Carpet, ! Name
  ,                                       ! Type
  Construction,                           ! Line Item Type
  AEDG-SmOffice 8A Ext Slab Unheated - 8in Slab without Carpet, ! Item Name
  ,                                       ! Object End Use Key
  ,                                       ! Quantity {dimensionless}
  45.52,                                  ! Material Cost {$}
  CostPerArea;                            ! Material Cost Units

