
OS:Version,
  {c7b06365-23bb-41e8-8b56-a7dec6c8e500}, ! Handle
  0.9.3;                                  ! Version Identifier

OS:Construction,
  {e61757f7-5fb4-4020-9bcf-279eba9bbe8c}, ! Handle
  90.1-1999 Res B14 Ext Wall Steel-Framed, ! Name
  ,                                       ! Surface Rendering Name
  {16588216-4ac3-498f-95fa-79ff545c15df}, ! Layer 1
  {ed14d74c-7329-43be-8e80-c79fe1b9132a}, ! Layer 2
  {88574e19-5af6-4939-8001-d21564de549e}; ! Layer 3

OS:Material:NoMass,
  {16588216-4ac3-498f-95fa-79ff545c15df}, ! Handle
  MAT-SHEATH,                             ! Name
  Rough,                                  ! Roughness
  0.36256,                                ! Thermal Resistance {m2-K/W}
  0.9,                                    ! Thermal Absorptance
  0.7,                                    ! Solar Absorptance
  0.7;                                    ! Visible Absorptance

OS:Material,
  {ed14d74c-7329-43be-8e80-c79fe1b9132a}, ! Handle
  Wall Insulation [6],                    ! Name
  MediumRough,                            ! Roughness
  0.0678449,                              ! Thickness {m}
  0.045,                                  ! Conductivity {W/m-K}
  265,                                    ! Density {kg/m3}
  836.8,                                  ! Specific Heat {J/kg-K}
  0.9,                                    ! Thermal Absorptance
  0.7,                                    ! Solar Absorptance
  0.7;                                    ! Visible Absorptance

OS:Material,
  {88574e19-5af6-4939-8001-d21564de549e}, ! Handle
  1/2IN Gypsum,                           ! Name
  Smooth,                                 ! Roughness
  0.01271,                                ! Thickness {m}
  0.16,                                   ! Conductivity {W/m-K}
  784.9,                                  ! Density {kg/m3}
  830,                                    ! Specific Heat {J/kg-K}
  0.9,                                    ! Thermal Absorptance
  0.92,                                   ! Solar Absorptance
  0.92;                                   ! Visible Absorptance

OS:ComponentCost:LineItem,
  {3695c1d4-8126-400d-8d05-a808bc654799}, ! Handle
  90.1-1999 Res B14 Ext Wall Steel-Framed, ! Name
  ,                                       ! Type
  Construction,                           ! Line Item Type
  90.1-1999 Res B14 Ext Wall Steel-Framed, ! Item Name
  ,                                       ! Object End Use Key
  ,                                       ! Quantity {dimensionless}
  91.749,                                 ! Material Cost {$}
  CostPerArea;                            ! Material Cost Units

