
OS:Version,
  {1172a437-5d42-42d8-a90b-e5628e7b98c8}, ! Handle
  0.9.3;                                  ! Version Identifier

OS:Material:NoMass,
  {99e85207-5c2e-4e3c-a8eb-a0a16592c711}, ! Handle
  DoorMaterial,                           ! Name
  MediumRough,                            ! Roughness
  0.251589,                               ! Thermal Resistance {m2-K/W}
  0.9,                                    ! Thermal Absorptance
  0.7,                                    ! Solar Absorptance
  0.7;                                    ! Visible Absorptance

OS:ComponentCost:LineItem,
  {c67cec48-3162-414b-be3f-3f6a5890d60f}, ! Handle
  AEDG-SmOffice 8A Door Swinging,         ! Name
  ,                                       ! Type
  Construction,                           ! Line Item Type
  AEDG-SmOffice 8A Door Swinging,         ! Item Name
  ,                                       ! Object End Use Key
  ,                                       ! Quantity {dimensionless}
  0,                                      ! Material Cost {$}
  CostPerArea;                            ! Material Cost Units

OS:Construction,
  {d734a150-4385-43d5-acfd-8b540cbcf3f5}, ! Handle
  AEDG-SmOffice 8A Door Swinging,         ! Name
  ,                                       ! Surface Rendering Name
  {99e85207-5c2e-4e3c-a8eb-a0a16592c711}; ! Layer 1

