
OS:Version,
  {47785de7-e88a-4bc7-b12f-187a745d3e73}, ! Handle
  0.9.3;                                  ! Version Identifier

OS:WindowMaterial:Glazing,
  {d1f475d5-32a9-4781-9a24-35509d9b8fca}, ! Handle
  Theoretical Glass [673],                ! Name
  SpectralAverage,                        ! Optical Data Type
  ,                                       ! Window Glass Spectral Data Set Name
  0.003,                                  ! Thickness {m}
  0.304934,                               ! Solar Transmittance at Normal Incidence
  0.645066,                               ! Front Side Solar Reflectance at Normal Incidence
  0.645066,                               ! Back Side Solar Reflectance at Normal Incidence
  0.310844,                               ! Visible Transmittance at Normal Incidence
  0.639156,                               ! Front Side Visible Reflectance at Normal Incidence
  0.639156,                               ! Back Side Visible Reflectance at Normal Incidence
  0,                                      ! Infrared Transmittance at Normal Incidence
  0.9,                                    ! Front Side Infrared Hemispherical Emissivity
  0.9,                                    ! Back Side Infrared Hemispherical Emissivity
  0.0139798;                              ! Conductivity {W/m-K}

OS:Construction,
  {6a888931-0a88-4b16-a0e7-579ed0a09260}, ! Handle
  Title 24-2008 Nonres 14 Window Fixed,   ! Name
  ,                                       ! Surface Rendering Name
  {d1f475d5-32a9-4781-9a24-35509d9b8fca}; ! Layer 1

OS:ComponentCost:LineItem,
  {613ff02e-31a1-4937-bf73-f09d4db37a85}, ! Handle
  Title 24-2008 Nonres 14 Window Fixed,   ! Name
  ,                                       ! Type
  Construction,                           ! Line Item Type
  Title 24-2008 Nonres 14 Window Fixed,   ! Item Name
  ,                                       ! Object End Use Key
  ,                                       ! Quantity {dimensionless}
  590.138,                                ! Material Cost {$}
  CostPerArea;                            ! Material Cost Units

