
OS:Version,
  {7fe11130-89c1-46b1-9239-24b36d255868}, ! Handle
  0.9.3;                                  ! Version Identifier

OS:Construction,
  {de9622f5-ba56-4b21-ac86-fb7c34306a5f}, ! Handle
  90.1 Windows Window Fixed 3441 Brk-Clr-Ins-V44-Ins-Clr, ! Name
  ,                                       ! Surface Rendering Name
  {4c779327-690b-4348-b11b-04c3aec1f850}; ! Layer 1

OS:WindowMaterial:Glazing,
  {4c779327-690b-4348-b11b-04c3aec1f850}, ! Handle
  Theoretical Glass [504],                ! Name
  SpectralAverage,                        ! Optical Data Type
  ,                                       ! Window Glass Spectral Data Set Name
  0.003,                                  ! Thickness {m}
  0.25636,                                ! Solar Transmittance at Normal Incidence
  0.69364,                                ! Front Side Solar Reflectance at Normal Incidence
  0.69364,                                ! Back Side Solar Reflectance at Normal Incidence
  0.34081,                                ! Visible Transmittance at Normal Incidence
  0.60919,                                ! Front Side Visible Reflectance at Normal Incidence
  0.60919,                                ! Back Side Visible Reflectance at Normal Incidence
  0,                                      ! Infrared Transmittance at Normal Incidence
  0.9,                                    ! Front Side Infrared Hemispherical Emissivity
  0.9,                                    ! Back Side Infrared Hemispherical Emissivity
  0.00845731;                             ! Conductivity {W/m-K}

OS:ComponentCost:LineItem,
  {0618cbad-9b9f-4cf1-b97f-d4e48f9af6d1}, ! Handle
  90.1 Windows Window Fixed 3441 Brk-Clr-Ins-V44-Ins-Clr, ! Name
  ,                                       ! Type
  Construction,                           ! Line Item Type
  90.1 Windows Window Fixed 3441 Brk-Clr-Ins-V44-Ins-Clr, ! Item Name
  ,                                       ! Object End Use Key
  ,                                       ! Quantity {dimensionless}
  0,                                      ! Material Cost {$}
  CostPerArea;                            ! Material Cost Units

