
OS:Version,
  {200c3ed6-009d-40fb-a2c2-1861be86a127}, ! Handle
  0.9.3;                                  ! Version Identifier

OS:Construction,
  {c96a2653-0873-4819-b0e8-b45d09281058}, ! Handle
  90.1 Windows Window Fixed 3441 Brk-Clr-Ins-V44-Ins-Clr, ! Name
  ,                                       ! Surface Rendering Name
  {28c3f0df-200c-4d6e-9f70-03fd74b9bb76}; ! Layer 1

OS:WindowMaterial:Glazing,
  {28c3f0df-200c-4d6e-9f70-03fd74b9bb76}, ! Handle
  Theoretical Glass [504],                ! Name
  SpectralAverage,                        ! Optical Data Type
  ,                                       ! Window Glass Spectral Data Set Name
  0.003,                                  ! Thickness {m}
  0.25636,                                ! Solar Transmittance at Normal Incidence
  0.69364,                                ! Front Side Solar Reflectance at Normal Incidence
  0.69364,                                ! Back Side Solar Reflectance at Normal Incidence
  0.34081,                                ! Visible Transmittance at Normal Incidence
  0.60919,                                ! Front Side Visible Reflectance at Normal Incidence
  0.60919,                                ! Back Side Visible Reflectance at Normal Incidence
  0,                                      ! Infrared Transmittance at Normal Incidence
  0.9,                                    ! Front Side Infrared Hemispherical Emissivity
  0.9,                                    ! Back Side Infrared Hemispherical Emissivity
  0.00845731;                             ! Conductivity {W/m-K}

OS:ComponentCost:LineItem,
  {2c295772-91c5-43ac-b194-6d2087559147}, ! Handle
  90.1 Windows Window Fixed 3441 Brk-Clr-Ins-V44-Ins-Clr, ! Name
  ,                                       ! Type
  Construction,                           ! Line Item Type
  90.1 Windows Window Fixed 3441 Brk-Clr-Ins-V44-Ins-Clr, ! Item Name
  ,                                       ! Object End Use Key
  ,                                       ! Quantity {dimensionless}
  0,                                      ! Material Cost {$}
  CostPerArea;                            ! Material Cost Units

OS:ComponentData,
  {9516504d-228a-45c7-a0c6-38398398d423}, ! Handle
  Component Data 1,                       ! Name
  {8455751e-2770-458c-85af-cd25cc49ebd3}, ! UUID
  {944de800-2013-4ba8-a99f-d28512f97073}, ! Version UUID
  1363981024,                             ! Creation Timestamp
  1363981024,                             ! Version Timestamp
  {c96a2653-0873-4819-b0e8-b45d09281058}, ! Name of Object 1
  {28c3f0df-200c-4d6e-9f70-03fd74b9bb76}, ! Name of Object 2
  {2c295772-91c5-43ac-b194-6d2087559147}; ! Name of Object 3

