
OS:Version,
  {ef821b31-3ad3-4088-b80c-c969bbb7043b}, ! Handle
  0.9.3;                                  ! Version Identifier

OS:Material,
  {adeac443-4bdd-4703-87df-a0805ea10df9}, ! Handle
  Roof Insulation [31],                   ! Name
  MediumRough,                            ! Roughness
  0.209546,                               ! Thickness {m}
  0.049,                                  ! Conductivity {W/m-K}
  265,                                    ! Density {kg/m3}
  836.8,                                  ! Specific Heat {J/kg-K}
  0.9,                                    ! Thermal Absorptance
  0.7,                                    ! Solar Absorptance
  0.7;                                    ! Visible Absorptance

OS:Construction,
  {15e4e15a-5188-4f1f-a1f8-920c0eebbab0}, ! Handle
  Title 24-2008 Nonres 4 Roof IEAD,       ! Name
  ,                                       ! Surface Rendering Name
  {32766ba0-dea4-480f-90b6-aa224ca76154}, ! Layer 1
  {adeac443-4bdd-4703-87df-a0805ea10df9}, ! Layer 2
  {7f96d058-4a4f-45a8-806e-a443ff8637da}; ! Layer 3

OS:Material,
  {32766ba0-dea4-480f-90b6-aa224ca76154}, ! Handle
  Roof Membrane [2],                      ! Name
  VeryRough,                              ! Roughness
  0.0095,                                 ! Thickness {m}
  0.16,                                   ! Conductivity {W/m-K}
  1121.29,                                ! Density {kg/m3}
  1460,                                   ! Specific Heat {J/kg-K}
  0.9,                                    ! Thermal Absorptance
  0.7,                                    ! Solar Absorptance
  0.85;                                   ! Visible Absorptance

OS:Material,
  {7f96d058-4a4f-45a8-806e-a443ff8637da}, ! Handle
  Metal Decking,                          ! Name
  MediumSmooth,                           ! Roughness
  0.001524,                               ! Thickness {m}
  45.006,                                 ! Conductivity {W/m-K}
  7680,                                   ! Density {kg/m3}
  418.4,                                  ! Specific Heat {J/kg-K}
  0.9,                                    ! Thermal Absorptance
  0.7,                                    ! Solar Absorptance
  0.3;                                    ! Visible Absorptance

OS:ComponentCost:LineItem,
  {6d9c9461-e676-4a96-bf8b-60dd4be01097}, ! Handle
  Title 24-2008 Nonres 4 Roof IEAD,       ! Name
  ,                                       ! Type
  Construction,                           ! Line Item Type
  Title 24-2008 Nonres 4 Roof IEAD,       ! Item Name
  ,                                       ! Object End Use Key
  ,                                       ! Quantity {dimensionless}
  56.579,                                 ! Material Cost {$}
  CostPerArea;                            ! Material Cost Units

