
! 
OS:Version,
  {9c37d538-db0d-4a47-9850-5bede7e76bd5}, !- Handle
  1.13.0;                                 !- Version Identifier


! {"nombreProductoCorto": "CLIMALIT PLUS con COOL LITE XTREME 50/22 DIAMANT F2 6 (16 argon90%) 44.2 DIAMANT", "codigoEAN": "", "handle": "5894af70-8190-49c5-8e63-84f151de8821", "g": 0.22, "tV": 0.5, "u": 1.0, "nombreProducto": "CLIMALIT PLUS con COOL LITE XTREME 50/22 DIAMANT F2 6 (16 argon90%) 44.2 DIAMANT\nU:1.0 W/m2K - g:0.22 - Tv: 0.50"}
OS:WindowMaterial:SimpleGlazingSystem,
  {5894af70-8190-49c5-8e63-84f151de8821}, !- Handle
  CLIMALIT PLUS con COOL LITE XTREME 50/22 DIAMANT F2 6 (16 argon90%) 44.2 DIAMANT, !- Name
  1.0,                                    !- U-Factor {W/m2-K}
  0.22,                                    !- Solar Heat Gain Coefficient
  0.5;                                    !- Visible Transmittance     
  
  
OS:Construction,
  {bc6e4b7f-c4b7-4e71-850a-6b71c2c362df}, !- Handle
  CLIMALIT PLUS con COOL LITE XTREME 50/22 DIAMANT F2 6 (16 argon90%) 44.2 DIAMANT,                         !- Name
  ,                                       !- Surface Rendering Name
  {5894af70-8190-49c5-8e63-84f151de8821}; !- Layer 1  

