
OS:Version,
  {c389fdd6-7739-4495-bdbe-f195ceaa97dd}, ! Handle
  0.9.3;                                  ! Version Identifier

OS:ComponentCost:LineItem,
  {8f846f6d-e257-4ad5-b2bd-5a41a6196b19}, ! Handle
  Title 24-2008 Nonres 5 Ext Slab Unheated - 8in Slab without Carpet, ! Name
  ,                                       ! Type
  Construction,                           ! Line Item Type
  Title 24-2008 Nonres 5 Ext Slab Unheated - 8in Slab without Carpet, ! Item Name
  ,                                       ! Object End Use Key
  ,                                       ! Quantity {dimensionless}
  45.52,                                  ! Material Cost {$}
  CostPerArea;                            ! Material Cost Units

OS:Construction,
  {3d03ff5f-6a2d-42ce-88ad-558e16691e25}, ! Handle
  Title 24-2008 Nonres 5 Ext Slab Unheated - 8in Slab without Carpet, ! Name
  ,                                       ! Surface Rendering Name
  {0e9fe1a3-b277-4857-a8d7-ea2b752a4c7c}; ! Layer 1

OS:Material,
  {0e9fe1a3-b277-4857-a8d7-ea2b752a4c7c}, ! Handle
  MAT-CC05 8 HW CONCRETE,                 ! Name
  Rough,                                  ! Roughness
  0.20321,                                ! Thickness {m}
  1.311,                                  ! Conductivity {W/m-K}
  2240,                                   ! Density {kg/m3}
  836.8,                                  ! Specific Heat {J/kg-K}
  0.9,                                    ! Thermal Absorptance
  0.7,                                    ! Solar Absorptance
  0.7;                                    ! Visible Absorptance

