
OS:Version,
  {97416226-91e6-4630-9c3d-30884112676f}, ! Handle
  0.9.3;                                  ! Version Identifier

OS:Material,
  {129876b1-913d-49ba-9ecd-f4d5cf05e621}, ! Handle
  METAL Door Medium 18Ga_1,               ! Name
  Smooth,                                 ! Roughness
  0.0013106,                              ! Thickness {m}
  45.3149,                                ! Conductivity {W/m-K}
  7833.03,                                ! Density {kg/m3}
  502.08,                                 ! Specific Heat {J/kg-K}
  0.8,                                    ! Thermal Absorptance
  0.5,                                    ! Solar Absorptance
  0.5;                                    ! Visible Absorptance

OS:ComponentCost:LineItem,
  {86a14f90-07d7-4ebd-a15a-8e540b40cff6}, ! Handle
  Title 24-2008 Nonres 7 Door Swinging,   ! Name
  ,                                       ! Type
  Construction,                           ! Line Item Type
  Title 24-2008 Nonres 7 Door Swinging,   ! Item Name
  ,                                       ! Object End Use Key
  ,                                       ! Quantity {dimensionless}
  0,                                      ! Material Cost {$}
  CostPerArea;                            ! Material Cost Units

OS:Material:NoMass,
  {34dca4d6-d6e4-4315-b477-492d77640f9c}, ! Handle
  AIR [15],                               ! Name
  Smooth,                                 ! Roughness
  0.251781,                               ! Thermal Resistance {m2-K/W}
  0.8,                                    ! Thermal Absorptance
  0.5,                                    ! Solar Absorptance
  0.5;                                    ! Visible Absorptance

OS:Material,
  {89bb4250-39ed-41cb-8ce5-33ec9aa1b1b2}, ! Handle
  METAL Door Medium 18Ga_2,               ! Name
  Smooth,                                 ! Roughness
  0.0013106,                              ! Thickness {m}
  45.3149,                                ! Conductivity {W/m-K}
  7833.03,                                ! Density {kg/m3}
  502.08,                                 ! Specific Heat {J/kg-K}
  0.8,                                    ! Thermal Absorptance
  0.5,                                    ! Solar Absorptance
  0.5;                                    ! Visible Absorptance

OS:Construction,
  {b925b531-3c45-4e02-b535-1b88ea93f315}, ! Handle
  Title 24-2008 Nonres 7 Door Swinging,   ! Name
  ,                                       ! Surface Rendering Name
  {129876b1-913d-49ba-9ecd-f4d5cf05e621}, ! Layer 1
  {34dca4d6-d6e4-4315-b477-492d77640f9c}, ! Layer 2
  {89bb4250-39ed-41cb-8ce5-33ec9aa1b1b2}; ! Layer 3

