
OS:Version,
  {c9c7ca35-db1b-472a-bb72-0af09be10403}, ! Handle
  0.9.3;                                  ! Version Identifier

OS:ComponentCost:LineItem,
  {826b0951-d9e6-44ab-be86-cd916309dda0}, ! Handle
  90.1-1999 Res B24 Int Wall,             ! Name
  ,                                       ! Type
  Construction,                           ! Line Item Type
  90.1-1999 Res B24 Int Wall,             ! Item Name
  ,                                       ! Object End Use Key
  ,                                       ! Quantity {dimensionless}
  0,                                      ! Material Cost {$}
  CostPerArea;                            ! Material Cost Units

OS:Construction,
  {2f369a07-d5a2-4754-974e-79a2b0840c50}, ! Handle
  90.1-1999 Res B24 Int Wall,             ! Name
  ,                                       ! Surface Rendering Name
  {fab170ce-b4d3-4be9-8fbd-09910e8a5727}, ! Layer 1
  {fab170ce-b4d3-4be9-8fbd-09910e8a5727}; ! Layer 2

OS:Material,
  {fab170ce-b4d3-4be9-8fbd-09910e8a5727}, ! Handle
  GP01 1/2 GYPSUM,                        ! Name
  Smooth,                                 ! Roughness
  0.01271,                                ! Thickness {m}
  0.16,                                   ! Conductivity {W/m-K}
  800,                                    ! Density {kg/m3}
  1090,                                   ! Specific Heat {J/kg-K}
  0.9,                                    ! Thermal Absorptance
  0.7,                                    ! Solar Absorptance
  0.5;                                    ! Visible Absorptance

OS:Material,
  {9c1a163c-1935-4711-9a2b-45280418cd47}, ! Handle
  GP01 1/2 GYPSUM 1,                      ! Name
  Smooth,                                 ! Roughness
  0.01271,                                ! Thickness {m}
  0.16,                                   ! Conductivity {W/m-K}
  800,                                    ! Density {kg/m3}
  1090,                                   ! Specific Heat {J/kg-K}
  0.9,                                    ! Thermal Absorptance
  0.7,                                    ! Solar Absorptance
  0.5;                                    ! Visible Absorptance

