
OS:Version,
  {6b3ea052-8bc2-4439-8cb8-6d86fa065059}, ! Handle
  0.9.3;                                  ! Version Identifier

OS:Material,
  {125a0cfc-2f51-441c-a372-cecd287fb223}, ! Handle
  Roof Insulation,                        ! Name
  MediumRough,                            ! Roughness
  0.124958,                               ! Thickness {m}
  0.049,                                  ! Conductivity {W/m-K}
  265,                                    ! Density {kg/m3}
  836.8,                                  ! Specific Heat {J/kg-K}
  0.9,                                    ! Thermal Absorptance
  0.7,                                    ! Solar Absorptance
  0.7;                                    ! Visible Absorptance

OS:Material,
  {4aded8d2-3863-4e76-8ae5-dc819c65bf7a}, ! Handle
  Roof Membrane,                          ! Name
  VeryRough,                              ! Roughness
  0.0095,                                 ! Thickness {m}
  0.16,                                   ! Conductivity {W/m-K}
  1121.29,                                ! Density {kg/m3}
  1460,                                   ! Specific Heat {J/kg-K}
  0.9,                                    ! Thermal Absorptance
  0.7,                                    ! Solar Absorptance
  0.7;                                    ! Visible Absorptance

OS:ComponentCost:LineItem,
  {2bf47036-7c96-4cff-967a-91991714697f}, ! Handle
  90.1-2001 Res B8 Roof IEAD,             ! Name
  ,                                       ! Type
  Construction,                           ! Line Item Type
  90.1-2001 Res B8 Roof IEAD,             ! Item Name
  ,                                       ! Object End Use Key
  ,                                       ! Quantity {dimensionless}
  49.208,                                 ! Material Cost {$}
  CostPerArea;                            ! Material Cost Units

OS:Construction,
  {45f69786-f956-4cbd-8d45-565cccbdc5ae}, ! Handle
  90.1-2001 Res B8 Roof IEAD,             ! Name
  ,                                       ! Surface Rendering Name
  {4aded8d2-3863-4e76-8ae5-dc819c65bf7a}, ! Layer 1
  {125a0cfc-2f51-441c-a372-cecd287fb223}, ! Layer 2
  {60b62034-a79b-4fba-a2f9-05bf2ee37182}; ! Layer 3

OS:Material,
  {60b62034-a79b-4fba-a2f9-05bf2ee37182}, ! Handle
  Metal Decking,                          ! Name
  MediumSmooth,                           ! Roughness
  0.001524,                               ! Thickness {m}
  45.006,                                 ! Conductivity {W/m-K}
  7680,                                   ! Density {kg/m3}
  418.4,                                  ! Specific Heat {J/kg-K}
  0.9,                                    ! Thermal Absorptance
  0.7,                                    ! Solar Absorptance
  0.3;                                    ! Visible Absorptance

