
OS:Version,
  {38b2ad6a-b886-4b0f-98b7-24ce33487a71}, ! Handle
  0.9.3;                                  ! Version Identifier

OS:Construction,
  {f341d021-5fd8-4f19-9d72-f1f6efbb4a57}, ! Handle
  90.1-2007 Nonres 6B Window Metal framing all other, ! Name
  ,                                       ! Surface Rendering Name
  {2d5273f4-c6aa-4d2a-b258-6b7a760957e0}; ! Layer 1

OS:WindowMaterial:Glazing,
  {2d5273f4-c6aa-4d2a-b258-6b7a760957e0}, ! Handle
  Theoretical Glass [182],                ! Name
  SpectralAverage,                        ! Optical Data Type
  ,                                       ! Window Glass Spectral Data Set Name
  0.003,                                  ! Thickness {m}
  0.39333,                                ! Solar Transmittance at Normal Incidence
  0.55667,                                ! Front Side Solar Reflectance at Normal Incidence
  0.55667,                                ! Back Side Solar Reflectance at Normal Incidence
  0.507883,                               ! Visible Transmittance at Normal Incidence
  0.442117,                               ! Front Side Visible Reflectance at Normal Incidence
  0.442117,                               ! Back Side Visible Reflectance at Normal Incidence
  0,                                      ! Infrared Transmittance at Normal Incidence
  0.9,                                    ! Front Side Infrared Hemispherical Emissivity
  0.9,                                    ! Back Side Infrared Hemispherical Emissivity
  0.0185383;                              ! Conductivity {W/m-K}

OS:ComponentCost:LineItem,
  {799c2ea6-32f4-4311-b007-a86e0ee86a83}, ! Handle
  90.1-2007 Nonres 6B Window Metal framing all other, ! Name
  ,                                       ! Type
  Construction,                           ! Line Item Type
  90.1-2007 Nonres 6B Window Metal framing all other, ! Item Name
  ,                                       ! Object End Use Key
  ,                                       ! Quantity {dimensionless}
  512.02,                                 ! Material Cost {$}
  CostPerArea;                            ! Material Cost Units

OS:ComponentData,
  {a3b7aa3e-bc28-40af-8325-4170e4305868}, ! Handle
  Component Data 1,                       ! Name
  {6b678f92-80d0-41e4-a182-51f93b160a55}, ! UUID
  {eae54a8c-5ae3-49bd-bbcd-1bf3c44c302a}, ! Version UUID
  1363981816,                             ! Creation Timestamp
  1363981816,                             ! Version Timestamp
  {f341d021-5fd8-4f19-9d72-f1f6efbb4a57}, ! Name of Object 1
  {2d5273f4-c6aa-4d2a-b258-6b7a760957e0}, ! Name of Object 2
  {799c2ea6-32f4-4311-b007-a86e0ee86a83}; ! Name of Object 3

