
OS:Version,
  {0974fc3c-82c3-4c6b-a338-fcac23b213d6}, ! Handle
  0.9.3;                                  ! Version Identifier

OS:ComponentCost:LineItem,
  {c214c41e-27f0-4ae9-986f-1c4f3b145435}, ! Handle
  90.1-2007 Nonres 6B Window Metal framing all other, ! Name
  ,                                       ! Type
  Construction,                           ! Line Item Type
  90.1-2007 Nonres 6B Window Metal framing all other, ! Item Name
  ,                                       ! Object End Use Key
  ,                                       ! Quantity {dimensionless}
  512.02,                                 ! Material Cost {$}
  CostPerArea;                            ! Material Cost Units

OS:Construction,
  {2c148230-ee00-44d4-b28f-4291fcc60fd6}, ! Handle
  90.1-2007 Nonres 6B Window Metal framing all other, ! Name
  ,                                       ! Surface Rendering Name
  {7f6f5bfa-94c9-4f0f-a21f-0ab0c57ec06f}; ! Layer 1

OS:WindowMaterial:Glazing,
  {7f6f5bfa-94c9-4f0f-a21f-0ab0c57ec06f}, ! Handle
  Theoretical Glass [182],                ! Name
  SpectralAverage,                        ! Optical Data Type
  ,                                       ! Window Glass Spectral Data Set Name
  0.003,                                  ! Thickness {m}
  0.39333,                                ! Solar Transmittance at Normal Incidence
  0.55667,                                ! Front Side Solar Reflectance at Normal Incidence
  0.55667,                                ! Back Side Solar Reflectance at Normal Incidence
  0.507883,                               ! Visible Transmittance at Normal Incidence
  0.442117,                               ! Front Side Visible Reflectance at Normal Incidence
  0.442117,                               ! Back Side Visible Reflectance at Normal Incidence
  0,                                      ! Infrared Transmittance at Normal Incidence
  0.9,                                    ! Front Side Infrared Hemispherical Emissivity
  0.9,                                    ! Back Side Infrared Hemispherical Emissivity
  0.0185383;                              ! Conductivity {W/m-K}

