
OS:Version,
  {08dbc23e-8379-4510-adbf-f884716739b6}, ! Handle
  0.9.3;                                  ! Version Identifier

OS:Material,
  {9f89beda-d3a5-4488-a615-24efbd1a9971}, ! Handle
  Roof Membrane,                          ! Name
  VeryRough,                              ! Roughness
  0.0095,                                 ! Thickness {m}
  0.16,                                   ! Conductivity {W/m-K}
  1121.29,                                ! Density {kg/m3}
  1460,                                   ! Specific Heat {J/kg-K}
  0.9,                                    ! Thermal Absorptance
  0.7,                                    ! Solar Absorptance
  0.7;                                    ! Visible Absorptance

OS:ComponentCost:LineItem,
  {d5755ddf-d4cd-4d75-91fd-99a09b55599b}, ! Handle
  90.1-2001 Res B6 Roof IEAD,             ! Name
  ,                                       ! Type
  Construction,                           ! Line Item Type
  90.1-2001 Res B6 Roof IEAD,             ! Item Name
  ,                                       ! Object End Use Key
  ,                                       ! Quantity {dimensionless}
  49.208,                                 ! Material Cost {$}
  CostPerArea;                            ! Material Cost Units

OS:Construction,
  {9b19b33e-ffe2-4042-9ece-38f416b86341}, ! Handle
  90.1-2001 Res B6 Roof IEAD,             ! Name
  ,                                       ! Surface Rendering Name
  {9f89beda-d3a5-4488-a615-24efbd1a9971}, ! Layer 1
  {b867ad43-7ca4-4c1d-b460-4681452aa194}, ! Layer 2
  {1d62ab85-7e05-4a08-9903-d1befde1b146}; ! Layer 3

OS:Material,
  {b867ad43-7ca4-4c1d-b460-4681452aa194}, ! Handle
  Roof Insulation,                        ! Name
  MediumRough,                            ! Roughness
  0.124958,                               ! Thickness {m}
  0.049,                                  ! Conductivity {W/m-K}
  265,                                    ! Density {kg/m3}
  836.8,                                  ! Specific Heat {J/kg-K}
  0.9,                                    ! Thermal Absorptance
  0.7,                                    ! Solar Absorptance
  0.7;                                    ! Visible Absorptance

OS:Material,
  {1d62ab85-7e05-4a08-9903-d1befde1b146}, ! Handle
  Metal Decking,                          ! Name
  MediumSmooth,                           ! Roughness
  0.001524,                               ! Thickness {m}
  45.006,                                 ! Conductivity {W/m-K}
  7680,                                   ! Density {kg/m3}
  418.4,                                  ! Specific Heat {J/kg-K}
  0.9,                                    ! Thermal Absorptance
  0.7,                                    ! Solar Absorptance
  0.3;                                    ! Visible Absorptance

