
OS:Version,
  {0c44d381-170f-4935-942d-605880aa8739}, ! Handle
  0.9.3;                                  ! Version Identifier

OS:Construction,
  {7295ba58-f516-4026-a06c-a3877cc38931}, ! Handle
  90.1-2001 Res B6 Roof IEAD,             ! Name
  ,                                       ! Surface Rendering Name
  {86eba94b-d9a1-4098-8dfa-985c7fbd51fc}, ! Layer 1
  {df469644-a371-468b-ba58-817c701c67d6}, ! Layer 2
  {c3b5d381-c9ea-4351-815f-76da6970925e}; ! Layer 3

OS:Material,
  {86eba94b-d9a1-4098-8dfa-985c7fbd51fc}, ! Handle
  Roof Membrane,                          ! Name
  VeryRough,                              ! Roughness
  0.0095,                                 ! Thickness {m}
  0.16,                                   ! Conductivity {W/m-K}
  1121.29,                                ! Density {kg/m3}
  1460,                                   ! Specific Heat {J/kg-K}
  0.9,                                    ! Thermal Absorptance
  0.7,                                    ! Solar Absorptance
  0.7;                                    ! Visible Absorptance

OS:Material,
  {df469644-a371-468b-ba58-817c701c67d6}, ! Handle
  Roof Insulation,                        ! Name
  MediumRough,                            ! Roughness
  0.124958,                               ! Thickness {m}
  0.049,                                  ! Conductivity {W/m-K}
  265,                                    ! Density {kg/m3}
  836.8,                                  ! Specific Heat {J/kg-K}
  0.9,                                    ! Thermal Absorptance
  0.7,                                    ! Solar Absorptance
  0.7;                                    ! Visible Absorptance

OS:Material,
  {c3b5d381-c9ea-4351-815f-76da6970925e}, ! Handle
  Metal Decking,                          ! Name
  MediumSmooth,                           ! Roughness
  0.001524,                               ! Thickness {m}
  45.006,                                 ! Conductivity {W/m-K}
  7680,                                   ! Density {kg/m3}
  418.4,                                  ! Specific Heat {J/kg-K}
  0.9,                                    ! Thermal Absorptance
  0.7,                                    ! Solar Absorptance
  0.3;                                    ! Visible Absorptance

OS:ComponentCost:LineItem,
  {05f1fcc1-410a-4dcd-962a-07c05dbbba50}, ! Handle
  90.1-2001 Res B6 Roof IEAD,             ! Name
  ,                                       ! Type
  Construction,                           ! Line Item Type
  90.1-2001 Res B6 Roof IEAD,             ! Item Name
  ,                                       ! Object End Use Key
  ,                                       ! Quantity {dimensionless}
  49.208,                                 ! Material Cost {$}
  CostPerArea;                            ! Material Cost Units

OS:ComponentData,
  {89c3bafa-1ac2-48a6-b57c-939b1abed9dc}, ! Handle
  Component Data 1,                       ! Name
  {6007d28e-2803-4d9f-aef3-0c9810870dbc}, ! UUID
  {efe330ca-b985-4bae-92da-4e90eeb44a02}, ! Version UUID
  1363981475,                             ! Creation Timestamp
  1363981475,                             ! Version Timestamp
  {7295ba58-f516-4026-a06c-a3877cc38931}, ! Name of Object 1
  {86eba94b-d9a1-4098-8dfa-985c7fbd51fc}, ! Name of Object 2
  {df469644-a371-468b-ba58-817c701c67d6}, ! Name of Object 3
  {c3b5d381-c9ea-4351-815f-76da6970925e}, ! Name of Object 4
  {05f1fcc1-410a-4dcd-962a-07c05dbbba50}; ! Name of Object 5

