
OS:Version,
  {09dac36e-f3c4-4ce5-8253-701909cf48fe}, ! Handle
  0.9.3;                                  ! Version Identifier

OS:WindowMaterial:Glazing,
  {a006ddcc-41f8-477b-87d7-6d4f8b507a13}, ! Handle
  Theoretical Glass [376],                ! Name
  SpectralAverage,                        ! Optical Data Type
  ,                                       ! Window Glass Spectral Data Set Name
  0.003,                                  ! Thickness {m}
  0.384542,                               ! Solar Transmittance at Normal Incidence
  0.565458,                               ! Front Side Solar Reflectance at Normal Incidence
  0.565458,                               ! Back Side Solar Reflectance at Normal Incidence
  0.390045,                               ! Visible Transmittance at Normal Incidence
  0.559955,                               ! Front Side Visible Reflectance at Normal Incidence
  0.559955,                               ! Back Side Visible Reflectance at Normal Incidence
  0,                                      ! Infrared Transmittance at Normal Incidence
  0.9,                                    ! Front Side Infrared Hemispherical Emissivity
  0.9,                                    ! Back Side Infrared Hemispherical Emissivity
  0.0144823;                              ! Conductivity {W/m-K}

OS:ComponentCost:LineItem,
  {0eab59e0-0365-4bd7-a582-a455ce8d89fc}, ! Handle
  90.1 Windows Window Fixed 2334 Brk-ClrMpr-Std-ClrSpe, ! Name
  ,                                       ! Type
  Construction,                           ! Line Item Type
  90.1 Windows Window Fixed 2334 Brk-ClrMpr-Std-ClrSpe, ! Item Name
  ,                                       ! Object End Use Key
  ,                                       ! Quantity {dimensionless}
  0,                                      ! Material Cost {$}
  CostPerArea;                            ! Material Cost Units

OS:Construction,
  {d69dd846-d44d-4919-a730-28792be793b1}, ! Handle
  90.1 Windows Window Fixed 2334 Brk-ClrMpr-Std-ClrSpe, ! Name
  ,                                       ! Surface Rendering Name
  {a006ddcc-41f8-477b-87d7-6d4f8b507a13}; ! Layer 1

