
OS:Version,
  {8fc26e22-023b-48d4-9003-2947b57809bd}, ! Handle
  0.9.3;                                  ! Version Identifier

OS:Construction,
  {eec9c8d3-663e-4756-9441-eb648b481b55}, ! Handle
  AEDG-SmOffice 3A Ext Slab Unheated - 8in Slab with Carpet, ! Name
  ,                                       ! Surface Rendering Name
  {4de82702-3da7-4203-87c3-67a4e0d53319}, ! Layer 1
  {bde17a57-824e-461d-9b60-34deebfeae29}; ! Layer 2

OS:Material,
  {4de82702-3da7-4203-87c3-67a4e0d53319}, ! Handle
  MAT-CC05 8 HW CONCRETE,                 ! Name
  Rough,                                  ! Roughness
  0.20321,                                ! Thickness {m}
  1.311,                                  ! Conductivity {W/m-K}
  2240,                                   ! Density {kg/m3}
  836.8,                                  ! Specific Heat {J/kg-K}
  0.9,                                    ! Thermal Absorptance
  0.7,                                    ! Solar Absorptance
  0.7;                                    ! Visible Absorptance

OS:Material:NoMass,
  {bde17a57-824e-461d-9b60-34deebfeae29}, ! Handle
  CP02 CARPET PAD,                        ! Name
  VeryRough,                              ! Roughness
  0.21648,                                ! Thermal Resistance {m2-K/W}
  0.9,                                    ! Thermal Absorptance
  0.7,                                    ! Solar Absorptance
  0.8;                                    ! Visible Absorptance

OS:ComponentCost:LineItem,
  {2b2f9335-4d4c-4bcf-ba44-6a1fdb140091}, ! Handle
  AEDG-SmOffice 3A Ext Slab Unheated - 8in Slab with Carpet, ! Name
  ,                                       ! Type
  Construction,                           ! Line Item Type
  AEDG-SmOffice 3A Ext Slab Unheated - 8in Slab with Carpet, ! Item Name
  ,                                       ! Object End Use Key
  ,                                       ! Quantity {dimensionless}
  45.52,                                  ! Material Cost {$}
  CostPerArea;                            ! Material Cost Units

