
OS:Version,
  {c92f66e7-9e84-4071-aace-986f6b0a60f8}, ! Handle
  0.9.3;                                  ! Version Identifier

OS:Construction,
  {59b44370-6f69-4063-8f8e-9a5ab396ce58}, ! Handle
  AEDG K12 Nonres 2A Skylight without Curb, ! Name
  ,                                       ! Surface Rendering Name
  {f50c5e5e-4d12-4601-bb38-58e6d199df32}; ! Layer 1

OS:WindowMaterial:Glazing,
  {f50c5e5e-4d12-4601-bb38-58e6d199df32}, ! Handle
  Theoretical Glass [246],                ! Name
  SpectralAverage,                        ! Optical Data Type
  ,                                       ! Window Glass Spectral Data Set Name
  0.003,                                  ! Thickness {m}
  0.346211,                               ! Solar Transmittance at Normal Incidence
  0.603789,                               ! Front Side Solar Reflectance at Normal Incidence
  0.603789,                               ! Back Side Solar Reflectance at Normal Incidence
  0.457336,                               ! Visible Transmittance at Normal Incidence
  0.492664,                               ! Front Side Visible Reflectance at Normal Incidence
  0.492664,                               ! Back Side Visible Reflectance at Normal Incidence
  0,                                      ! Infrared Transmittance at Normal Incidence
  0.999,                                  ! Front Side Infrared Hemispherical Emissivity
  0.999,                                  ! Back Side Infrared Hemispherical Emissivity
  72.7123;                                ! Conductivity {W/m-K}

OS:ComponentCost:LineItem,
  {dd114202-cc89-4ff7-af2f-53fbb873d483}, ! Handle
  AEDG K12 Nonres 2A Skylight without Curb, ! Name
  ,                                       ! Type
  Construction,                           ! Line Item Type
  AEDG K12 Nonres 2A Skylight without Curb, ! Item Name
  ,                                       ! Object End Use Key
  ,                                       ! Quantity {dimensionless}
  527.515,                                ! Material Cost {$}
  CostPerArea;                            ! Material Cost Units

