
OS:Version,
  {fcf54416-3b75-48fc-86b0-99e5fb0d07e3}, ! Handle
  0.9.3;                                  ! Version Identifier

OS:ComponentCost:LineItem,
  {1b7df38c-55d7-43e5-bb01-53e139da6cb0}, ! Handle
  90.1-1999 Res B21 Ext Wall Metal Building, ! Name
  ,                                       ! Type
  Construction,                           ! Line Item Type
  90.1-1999 Res B21 Ext Wall Metal Building, ! Item Name
  ,                                       ! Object End Use Key
  ,                                       ! Quantity {dimensionless}
  107.698,                                ! Material Cost {$}
  CostPerArea;                            ! Material Cost Units

OS:Construction,
  {abb63589-9686-431c-9fb9-c1b7d9896b05}, ! Handle
  90.1-1999 Res B21 Ext Wall Metal Building, ! Name
  ,                                       ! Surface Rendering Name
  {56d958dc-c4de-4854-b631-5a401b93b4a1}, ! Layer 1
  {10ce79dd-3eaa-49bb-b1aa-eb957ae1c8d6}, ! Layer 2
  {2b64d603-1761-40eb-9dd3-682ef745d3df}; ! Layer 3

OS:Material,
  {56d958dc-c4de-4854-b631-5a401b93b4a1}, ! Handle
  Metal Siding,                           ! Name
  Smooth,                                 ! Roughness
  0.0015,                                 ! Thickness {m}
  44.96,                                  ! Conductivity {W/m-K}
  7688.86,                                ! Density {kg/m3}
  410,                                    ! Specific Heat {J/kg-K}
  0.9,                                    ! Thermal Absorptance
  0.2,                                    ! Solar Absorptance
  0.2;                                    ! Visible Absorptance

OS:Material,
  {10ce79dd-3eaa-49bb-b1aa-eb957ae1c8d6}, ! Handle
  Wall Insulation [9],                    ! Name
  MediumRough,                            ! Roughness
  0.128642,                               ! Thickness {m}
  0.045,                                  ! Conductivity {W/m-K}
  265,                                    ! Density {kg/m3}
  836.8,                                  ! Specific Heat {J/kg-K}
  0.9,                                    ! Thermal Absorptance
  0.7,                                    ! Solar Absorptance
  0.7;                                    ! Visible Absorptance

OS:Material,
  {2b64d603-1761-40eb-9dd3-682ef745d3df}, ! Handle
  1/2IN Gypsum,                           ! Name
  Smooth,                                 ! Roughness
  0.01271,                                ! Thickness {m}
  0.16,                                   ! Conductivity {W/m-K}
  784.9,                                  ! Density {kg/m3}
  830,                                    ! Specific Heat {J/kg-K}
  0.9,                                    ! Thermal Absorptance
  0.92,                                   ! Solar Absorptance
  0.92;                                   ! Visible Absorptance

