
OS:Version,
  {ec239b62-2053-49a1-8ae5-b0163b6d9119}, !- Handle
  1.1.0;                                  !- Version Identifier

OS:Construction,
  {e85a2d8f-eda4-41d1-bdea-2f673068ad46}, !- Handle
  Trp LoE Film (66) Bronze 6mm/6mm Air,   !- Name
  ,                                       !- Surface Rendering Name
  {095aa936-f049-49af-8870-98e26a495528}, !- Layer 1
  {92d5581d-181e-466f-9f65-3461907278ce}, !- Layer 2
  {d99a0b18-e1d2-432b-8b91-cea61498395b}, !- Layer 3
  {92d5581d-181e-466f-9f65-3461907278ce}, !- Layer 4
  {6548f92c-4adf-4d0b-bba2-03e362b557ea}; !- Layer 5

OS:WindowMaterial:Glazing,
  {095aa936-f049-49af-8870-98e26a495528}, !- Handle
  BRONZE 6MM,                             !- Name
  SpectralAverage,                        !- Optical Data Type
  ,                                       !- Window Glass Spectral Data Set Name
  0.006,                                  !- Thickness {m}
  0.482,                                  !- Solar Transmittance at Normal Incidence
  0.054,                                  !- Front Side Solar Reflectance at Normal Incidence
  0.054,                                  !- Back Side Solar Reflectance at Normal Incidence
  0.534,                                  !- Visible Transmittance at Normal Incidence
  0.057,                                  !- Front Side Visible Reflectance at Normal Incidence
  0.057,                                  !- Back Side Visible Reflectance at Normal Incidence
  0,                                      !- Infrared Transmittance at Normal Incidence
  0.84,                                   !- Front Side Infrared Hemispherical Emissivity
  0.84,                                   !- Back Side Infrared Hemispherical Emissivity
  0.9;                                    !- Conductivity {W/m-K}

OS:WindowMaterial:Gas,
  {92d5581d-181e-466f-9f65-3461907278ce}, !- Handle
  AIR 6MM,                                !- Name
  Air,                                    !- Gas Type
  0.0063;                                 !- Thickness {m}

OS:WindowMaterial:Glazing,
  {d99a0b18-e1d2-432b-8b91-cea61498395b}, !- Handle
  COATED POLY-66,                         !- Name
  SpectralAverage,                        !- Optical Data Type
  ,                                       !- Window Glass Spectral Data Set Name
  0.00051,                                !- Thickness {m}
  0.403,                                  !- Solar Transmittance at Normal Incidence
  0.514,                                  !- Front Side Solar Reflectance at Normal Incidence
  0.515,                                  !- Back Side Solar Reflectance at Normal Incidence
  0.658,                                  !- Visible Transmittance at Normal Incidence
  0.256,                                  !- Front Side Visible Reflectance at Normal Incidence
  0.279,                                  !- Back Side Visible Reflectance at Normal Incidence
  0,                                      !- Infrared Transmittance at Normal Incidence
  0.057,                                  !- Front Side Infrared Hemispherical Emissivity
  0.72,                                   !- Back Side Infrared Hemispherical Emissivity
  0.14;                                   !- Conductivity {W/m-K}

OS:WindowMaterial:Glazing,
  {6548f92c-4adf-4d0b-bba2-03e362b557ea}, !- Handle
  CLEAR 6MM,                              !- Name
  SpectralAverage,                        !- Optical Data Type
  ,                                       !- Window Glass Spectral Data Set Name
  0.006,                                  !- Thickness {m}
  0.775,                                  !- Solar Transmittance at Normal Incidence
  0.071,                                  !- Front Side Solar Reflectance at Normal Incidence
  0.071,                                  !- Back Side Solar Reflectance at Normal Incidence
  0.881,                                  !- Visible Transmittance at Normal Incidence
  0.08,                                   !- Front Side Visible Reflectance at Normal Incidence
  0.08,                                   !- Back Side Visible Reflectance at Normal Incidence
  0,                                      !- Infrared Transmittance at Normal Incidence
  0.84,                                   !- Front Side Infrared Hemispherical Emissivity
  0.84,                                   !- Back Side Infrared Hemispherical Emissivity
  0.9;                                    !- Conductivity {W/m-K}

