
OS:Version,
  {78f50463-de7a-428c-ba54-07b8e41904f3}, ! Handle
  0.9.3;                                  ! Version Identifier

OS:Construction,
  {e4440811-a8bf-4b10-9780-12e4fca1af0e}, ! Handle
  AEDG-SmOffice 3A Roof IEAD,             ! Name
  ,                                       ! Surface Rendering Name
  {3071f3bf-48d9-4e70-ba43-b9b0f4a94dc7}, ! Layer 1
  {a4de4a83-02e1-4d96-84bf-4e35df25c8fe}, ! Layer 2
  {12abd400-58be-4e51-844b-0e6a32857857}; ! Layer 3

OS:Material,
  {3071f3bf-48d9-4e70-ba43-b9b0f4a94dc7}, ! Handle
  Roof Membrane,                          ! Name
  VeryRough,                              ! Roughness
  0.0095,                                 ! Thickness {m}
  0.16,                                   ! Conductivity {W/m-K}
  1121.29,                                ! Density {kg/m3}
  1460,                                   ! Specific Heat {J/kg-K}
  0.9,                                    ! Thermal Absorptance
  0.7,                                    ! Solar Absorptance
  0.7;                                    ! Visible Absorptance

OS:Material,
  {a4de4a83-02e1-4d96-84bf-4e35df25c8fe}, ! Handle
  Roof Insulation [7],                    ! Name
  MediumRough,                            ! Roughness
  0.167563,                               ! Thickness {m}
  0.049,                                  ! Conductivity {W/m-K}
  265,                                    ! Density {kg/m3}
  836.8,                                  ! Specific Heat {J/kg-K}
  0.9,                                    ! Thermal Absorptance
  0.7,                                    ! Solar Absorptance
  0.7;                                    ! Visible Absorptance

OS:Material,
  {12abd400-58be-4e51-844b-0e6a32857857}, ! Handle
  Metal Decking,                          ! Name
  MediumSmooth,                           ! Roughness
  0.001524,                               ! Thickness {m}
  45.006,                                 ! Conductivity {W/m-K}
  7680,                                   ! Density {kg/m3}
  418.4,                                  ! Specific Heat {J/kg-K}
  0.9,                                    ! Thermal Absorptance
  0.7,                                    ! Solar Absorptance
  0.3;                                    ! Visible Absorptance

OS:ComponentCost:LineItem,
  {3f68f70c-f1e4-4660-b658-587e295e45ce}, ! Handle
  AEDG-SmOffice 3A Roof IEAD,             ! Name
  ,                                       ! Type
  Construction,                           ! Line Item Type
  AEDG-SmOffice 3A Roof IEAD,             ! Item Name
  ,                                       ! Object End Use Key
  ,                                       ! Quantity {dimensionless}
  52.896,                                 ! Material Cost {$}
  CostPerArea;                            ! Material Cost Units

OS:ComponentData,
  {7e9fcd2b-8a3b-485f-9b07-a93df247220d}, ! Handle
  Component Data 1,                       ! Name
  {56c39eb7-2834-409b-8334-21f417a3831e}, ! UUID
  {df29ed45-83a8-443e-9df8-f3128db27b72}, ! Version UUID
  1363981945,                             ! Creation Timestamp
  1363981945,                             ! Version Timestamp
  {e4440811-a8bf-4b10-9780-12e4fca1af0e}, ! Name of Object 1
  {3071f3bf-48d9-4e70-ba43-b9b0f4a94dc7}, ! Name of Object 2
  {a4de4a83-02e1-4d96-84bf-4e35df25c8fe}, ! Name of Object 3
  {12abd400-58be-4e51-844b-0e6a32857857}, ! Name of Object 4
  {3f68f70c-f1e4-4660-b658-587e295e45ce}; ! Name of Object 5

