
OS:Version,
  {fd4fe9b6-9c37-4477-8d43-e17548a35fe8}, ! Handle
  0.9.3;                                  ! Version Identifier

OS:Material,
  {83b285f6-9522-44f2-b0eb-3d4a5245c5b6}, ! Handle
  Roof Membrane,                          ! Name
  VeryRough,                              ! Roughness
  0.0095,                                 ! Thickness {m}
  0.16,                                   ! Conductivity {W/m-K}
  1121.29,                                ! Density {kg/m3}
  1460,                                   ! Specific Heat {J/kg-K}
  0.9,                                    ! Thermal Absorptance
  0.7,                                    ! Solar Absorptance
  0.7;                                    ! Visible Absorptance

OS:Construction,
  {7f470f4c-e5bb-4ac1-8c60-c9670df40fcf}, ! Handle
  AEDG-SmOffice 3A Roof IEAD,             ! Name
  ,                                       ! Surface Rendering Name
  {83b285f6-9522-44f2-b0eb-3d4a5245c5b6}, ! Layer 1
  {1f39e74b-93b5-4883-a78f-2dcbb0b233dd}, ! Layer 2
  {f7b2f453-4fbf-4353-b7fb-3e1d9a2f8c25}; ! Layer 3

OS:Material,
  {1f39e74b-93b5-4883-a78f-2dcbb0b233dd}, ! Handle
  Roof Insulation [7],                    ! Name
  MediumRough,                            ! Roughness
  0.167563,                               ! Thickness {m}
  0.049,                                  ! Conductivity {W/m-K}
  265,                                    ! Density {kg/m3}
  836.8,                                  ! Specific Heat {J/kg-K}
  0.9,                                    ! Thermal Absorptance
  0.7,                                    ! Solar Absorptance
  0.7;                                    ! Visible Absorptance

OS:Material,
  {f7b2f453-4fbf-4353-b7fb-3e1d9a2f8c25}, ! Handle
  Metal Decking,                          ! Name
  MediumSmooth,                           ! Roughness
  0.001524,                               ! Thickness {m}
  45.006,                                 ! Conductivity {W/m-K}
  7680,                                   ! Density {kg/m3}
  418.4,                                  ! Specific Heat {J/kg-K}
  0.9,                                    ! Thermal Absorptance
  0.7,                                    ! Solar Absorptance
  0.3;                                    ! Visible Absorptance

OS:ComponentCost:LineItem,
  {7ce9b492-3136-4a04-b8df-15f6cb5e61c5}, ! Handle
  AEDG-SmOffice 3A Roof IEAD,             ! Name
  ,                                       ! Type
  Construction,                           ! Line Item Type
  AEDG-SmOffice 3A Roof IEAD,             ! Item Name
  ,                                       ! Object End Use Key
  ,                                       ! Quantity {dimensionless}
  52.896,                                 ! Material Cost {$}
  CostPerArea;                            ! Material Cost Units

