
OS:Version,
  {88b7ec96-58b8-4e29-8bd8-abd5fd17690f}, ! Handle
  0.9.3;                                  ! Version Identifier

OS:Construction,
  {013406cf-db27-4e1f-96db-c6be015e3436}, ! Handle
  90.1-1999 Res B21 Ext Slab Unheated - 4in Slab without Carpet, ! Name
  ,                                       ! Surface Rendering Name
  {1a8281b8-1104-4afb-961d-3d74156b7e93}; ! Layer 1

OS:Material,
  {1a8281b8-1104-4afb-961d-3d74156b7e93}, ! Handle
  MAT-CC05 4 HW CONCRETE,                 ! Name
  Rough,                                  ! Roughness
  0.1016,                                 ! Thickness {m}
  1.311,                                  ! Conductivity {W/m-K}
  2240,                                   ! Density {kg/m3}
  836.8,                                  ! Specific Heat {J/kg-K}
  0.9,                                    ! Thermal Absorptance
  0.7,                                    ! Solar Absorptance
  0.7;                                    ! Visible Absorptance

OS:ComponentCost:LineItem,
  {eb351ad2-4900-4f1e-887c-77208ed51cf9}, ! Handle
  90.1-1999 Res B21 Ext Slab Unheated - 4in Slab without Carpet, ! Name
  ,                                       ! Type
  Construction,                           ! Line Item Type
  90.1-1999 Res B21 Ext Slab Unheated - 4in Slab without Carpet, ! Item Name
  ,                                       ! Object End Use Key
  ,                                       ! Quantity {dimensionless}
  45.52,                                  ! Material Cost {$}
  CostPerArea;                            ! Material Cost Units

OS:ComponentData,
  {5ccadd24-7dfd-4e9f-adcd-a914dbd93322}, ! Handle
  Component Data 1,                       ! Name
  {2da02dbc-8a73-4195-bcfa-b2191935391e}, ! UUID
  {0bafdc51-f9da-4977-937f-374d42474bf3}, ! Version UUID
  1363981257,                             ! Creation Timestamp
  1363981257,                             ! Version Timestamp
  {013406cf-db27-4e1f-96db-c6be015e3436}, ! Name of Object 1
  {1a8281b8-1104-4afb-961d-3d74156b7e93}, ! Name of Object 2
  {eb351ad2-4900-4f1e-887c-77208ed51cf9}; ! Name of Object 3

