
OS:Version,
  {ab38943e-8fb5-4eea-90f6-4e8d9c6ea7ef}, ! Handle
  0.9.3;                                  ! Version Identifier

OS:Material:NoMass,
  {66aa563e-717b-464a-989f-9c45af2270d2}, ! Handle
  CP02 CARPET PAD,                        ! Name
  VeryRough,                              ! Roughness
  0.21648,                                ! Thermal Resistance {m2-K/W}
  0.9,                                    ! Thermal Absorptance
  0.7,                                    ! Solar Absorptance
  0.8;                                    ! Visible Absorptance

OS:Construction,
  {ab9b0a46-1c47-426e-90e5-ef72dfdfab7a}, ! Handle
  Title 24-2008 Nonres 1 Exposed Floor Mass, ! Name
  ,                                       ! Surface Rendering Name
  {4df05227-2c2d-4026-91f6-ee05cdf3c0ee}, ! Layer 1
  {f801a84f-9966-4511-ba48-2b59a820c7eb}, ! Layer 2
  {66aa563e-717b-464a-989f-9c45af2270d2}; ! Layer 3

OS:Material,
  {4df05227-2c2d-4026-91f6-ee05cdf3c0ee}, ! Handle
  Floor Insulation [55],                  ! Name
  MediumRough,                            ! Roughness
  0.058588,                               ! Thickness {m}
  0.045,                                  ! Conductivity {W/m-K}
  265,                                    ! Density {kg/m3}
  836.8,                                  ! Specific Heat {J/kg-K}
  0.9,                                    ! Thermal Absorptance
  0.7,                                    ! Solar Absorptance
  0.7;                                    ! Visible Absorptance

OS:Material,
  {f801a84f-9966-4511-ba48-2b59a820c7eb}, ! Handle
  MAT-CC05 8 HW CONCRETE,                 ! Name
  Rough,                                  ! Roughness
  0.20321,                                ! Thickness {m}
  1.311,                                  ! Conductivity {W/m-K}
  2240,                                   ! Density {kg/m3}
  836.8,                                  ! Specific Heat {J/kg-K}
  0.9,                                    ! Thermal Absorptance
  0.7,                                    ! Solar Absorptance
  0.7;                                    ! Visible Absorptance

OS:ComponentCost:LineItem,
  {2c64edfd-5a8d-4b89-ab33-9a49a189e3a7}, ! Handle
  Title 24-2008 Nonres 1 Exposed Floor Mass, ! Name
  ,                                       ! Type
  Construction,                           ! Line Item Type
  Title 24-2008 Nonres 1 Exposed Floor Mass, ! Item Name
  ,                                       ! Object End Use Key
  ,                                       ! Quantity {dimensionless}
  48.922,                                 ! Material Cost {$}
  CostPerArea;                            ! Material Cost Units

