
OS:Version,
  {ffbc208c-20e6-4628-9f55-378a443b46fa}, ! Handle
  0.9.3;                                  ! Version Identifier

OS:Construction,
  {f0e66ff2-e5b7-4306-a061-54265165e780}, ! Handle
  Title 24-2008 Nonres 1 Exposed Floor Mass, ! Name
  ,                                       ! Surface Rendering Name
  {5642e747-34d7-4f7d-aa75-9be29a360abd}, ! Layer 1
  {123132e1-0c1a-4fea-b0dc-433e1ce77c9a}, ! Layer 2
  {0c97511a-cf6c-4ad5-9757-c4062fcdd83f}; ! Layer 3

OS:Material,
  {5642e747-34d7-4f7d-aa75-9be29a360abd}, ! Handle
  Floor Insulation [55],                  ! Name
  MediumRough,                            ! Roughness
  0.058588,                               ! Thickness {m}
  0.045,                                  ! Conductivity {W/m-K}
  265,                                    ! Density {kg/m3}
  836.8,                                  ! Specific Heat {J/kg-K}
  0.9,                                    ! Thermal Absorptance
  0.7,                                    ! Solar Absorptance
  0.7;                                    ! Visible Absorptance

OS:Material,
  {123132e1-0c1a-4fea-b0dc-433e1ce77c9a}, ! Handle
  MAT-CC05 8 HW CONCRETE,                 ! Name
  Rough,                                  ! Roughness
  0.20321,                                ! Thickness {m}
  1.311,                                  ! Conductivity {W/m-K}
  2240,                                   ! Density {kg/m3}
  836.8,                                  ! Specific Heat {J/kg-K}
  0.9,                                    ! Thermal Absorptance
  0.7,                                    ! Solar Absorptance
  0.7;                                    ! Visible Absorptance

OS:Material:NoMass,
  {0c97511a-cf6c-4ad5-9757-c4062fcdd83f}, ! Handle
  CP02 CARPET PAD,                        ! Name
  VeryRough,                              ! Roughness
  0.21648,                                ! Thermal Resistance {m2-K/W}
  0.9,                                    ! Thermal Absorptance
  0.7,                                    ! Solar Absorptance
  0.8;                                    ! Visible Absorptance

OS:ComponentCost:LineItem,
  {7f5aacd3-13d1-49db-a73e-6f7154a293d4}, ! Handle
  Title 24-2008 Nonres 1 Exposed Floor Mass, ! Name
  ,                                       ! Type
  Construction,                           ! Line Item Type
  Title 24-2008 Nonres 1 Exposed Floor Mass, ! Item Name
  ,                                       ! Object End Use Key
  ,                                       ! Quantity {dimensionless}
  48.922,                                 ! Material Cost {$}
  CostPerArea;                            ! Material Cost Units

OS:ComponentData,
  {e0b037df-e552-4bcc-b6e8-372b6b3f5e27}, ! Handle
  Component Data 1,                       ! Name
  {f182921d-f940-4318-b4e6-24b980f5b899}, ! UUID
  {94e087d8-8401-4602-98ea-175c5bbb94b3}, ! Version UUID
  1363981983,                             ! Creation Timestamp
  1363981983,                             ! Version Timestamp
  {f0e66ff2-e5b7-4306-a061-54265165e780}, ! Name of Object 1
  {5642e747-34d7-4f7d-aa75-9be29a360abd}, ! Name of Object 2
  {123132e1-0c1a-4fea-b0dc-433e1ce77c9a}, ! Name of Object 3
  {0c97511a-cf6c-4ad5-9757-c4062fcdd83f}, ! Name of Object 4
  {7f5aacd3-13d1-49db-a73e-6f7154a293d4}; ! Name of Object 5

