
OS:Version,
  {d36e8401-f8e3-41a7-9673-f1bf101aed6e}, ! Handle
  0.9.3;                                  ! Version Identifier

OS:Construction,
  {a51a456c-07e5-4da6-8d73-0fddabe50620}, ! Handle
  90.1-1999 Res B2 Roof IEAD,             ! Name
  ,                                       ! Surface Rendering Name
  {f07a0b42-484c-4267-859a-819bc6f335ad}, ! Layer 1
  {140ab1e5-81f2-4676-ba30-830d8380a15d}, ! Layer 2
  {b1cf0fec-acb3-4091-9dc6-921a0e36c38f}; ! Layer 3

OS:Material,
  {f07a0b42-484c-4267-859a-819bc6f335ad}, ! Handle
  Roof Membrane,                          ! Name
  VeryRough,                              ! Roughness
  0.0095,                                 ! Thickness {m}
  0.16,                                   ! Conductivity {W/m-K}
  1121.29,                                ! Density {kg/m3}
  1460,                                   ! Specific Heat {J/kg-K}
  0.9,                                    ! Thermal Absorptance
  0.7,                                    ! Solar Absorptance
  0.7;                                    ! Visible Absorptance

OS:Material,
  {140ab1e5-81f2-4676-ba30-830d8380a15d}, ! Handle
  Roof Insulation,                        ! Name
  MediumRough,                            ! Roughness
  0.124958,                               ! Thickness {m}
  0.049,                                  ! Conductivity {W/m-K}
  265,                                    ! Density {kg/m3}
  836.8,                                  ! Specific Heat {J/kg-K}
  0.9,                                    ! Thermal Absorptance
  0.7,                                    ! Solar Absorptance
  0.7;                                    ! Visible Absorptance

OS:Material,
  {b1cf0fec-acb3-4091-9dc6-921a0e36c38f}, ! Handle
  Metal Decking,                          ! Name
  MediumSmooth,                           ! Roughness
  0.001524,                               ! Thickness {m}
  45.006,                                 ! Conductivity {W/m-K}
  7680,                                   ! Density {kg/m3}
  418.4,                                  ! Specific Heat {J/kg-K}
  0.9,                                    ! Thermal Absorptance
  0.7,                                    ! Solar Absorptance
  0.3;                                    ! Visible Absorptance

OS:ComponentCost:LineItem,
  {b796b88b-304b-408c-b240-c91b87ae3de0}, ! Handle
  90.1-1999 Res B2 Roof IEAD,             ! Name
  ,                                       ! Type
  Construction,                           ! Line Item Type
  90.1-1999 Res B2 Roof IEAD,             ! Item Name
  ,                                       ! Object End Use Key
  ,                                       ! Quantity {dimensionless}
  49.208,                                 ! Material Cost {$}
  CostPerArea;                            ! Material Cost Units

OS:ComponentData,
  {8b2fd448-3b02-4a14-b5a4-53ec36bb3a29}, ! Handle
  Component Data 1,                       ! Name
  {d4596d4b-671a-4066-9b46-8427fce8a4dc}, ! UUID
  {f2a5839f-76ed-48cf-9935-352cc4d951b9}, ! Version UUID
  1363981166,                             ! Creation Timestamp
  1363981166,                             ! Version Timestamp
  {a51a456c-07e5-4da6-8d73-0fddabe50620}, ! Name of Object 1
  {f07a0b42-484c-4267-859a-819bc6f335ad}, ! Name of Object 2
  {140ab1e5-81f2-4676-ba30-830d8380a15d}, ! Name of Object 3
  {b1cf0fec-acb3-4091-9dc6-921a0e36c38f}, ! Name of Object 4
  {b796b88b-304b-408c-b240-c91b87ae3de0}; ! Name of Object 5

