
OS:Version,
  {531431b2-3e2f-4b37-8c0f-181921895b12}, ! Handle
  0.9.3;                                  ! Version Identifier

OS:Material,
  {5061d6fa-7ae3-4cd5-98b1-758fb6c39b13}, ! Handle
  METAL Door Medium 18Ga_1,               ! Name
  Smooth,                                 ! Roughness
  0.0013106,                              ! Thickness {m}
  45.3149,                                ! Conductivity {W/m-K}
  7833.03,                                ! Density {kg/m3}
  502.08,                                 ! Specific Heat {J/kg-K}
  0.8,                                    ! Thermal Absorptance
  0.5,                                    ! Solar Absorptance
  0.5;                                    ! Visible Absorptance

OS:Material:NoMass,
  {554e73ef-6676-4e69-a938-f10c066f39f5}, ! Handle
  AIR,                                    ! Name
  Smooth,                                 ! Roughness
  0.251489,                               ! Thermal Resistance {m2-K/W}
  0.8,                                    ! Thermal Absorptance
  0.5,                                    ! Solar Absorptance
  0.5;                                    ! Visible Absorptance

OS:Material,
  {1619466d-8cde-4ddf-8a79-dd7c4f1a7620}, ! Handle
  METAL Door Medium 18Ga_2,               ! Name
  Smooth,                                 ! Roughness
  0.0013106,                              ! Thickness {m}
  45.3149,                                ! Conductivity {W/m-K}
  7833.03,                                ! Density {kg/m3}
  502.08,                                 ! Specific Heat {J/kg-K}
  0.8,                                    ! Thermal Absorptance
  0.5,                                    ! Solar Absorptance
  0.5;                                    ! Visible Absorptance

OS:Construction,
  {f321c9a5-80b2-43df-bb7a-f09d2cac5df0}, ! Handle
  AEDG K12 Nonres 2A Door Swinging,       ! Name
  ,                                       ! Surface Rendering Name
  {5061d6fa-7ae3-4cd5-98b1-758fb6c39b13}, ! Layer 1
  {554e73ef-6676-4e69-a938-f10c066f39f5}, ! Layer 2
  {1619466d-8cde-4ddf-8a79-dd7c4f1a7620}; ! Layer 3

OS:ComponentCost:LineItem,
  {dcd8522f-a14d-4f8a-9823-6a0b011c6a11}, ! Handle
  AEDG K12 Nonres 2A Door Swinging,       ! Name
  ,                                       ! Type
  Construction,                           ! Line Item Type
  AEDG K12 Nonres 2A Door Swinging,       ! Item Name
  ,                                       ! Object End Use Key
  ,                                       ! Quantity {dimensionless}
  0,                                      ! Material Cost {$}
  CostPerArea;                            ! Material Cost Units

