
OS:Version,
  {8eaf95b4-6dae-4343-8067-7101f816fb3d}, ! Handle
  0.9.3;                                  ! Version Identifier

OS:Construction,
  {32c8758d-10c1-4035-8fe4-ab29fd93bd8d}, ! Handle
  90.1 Windows Window Fixed 2514 Vnl-ClrMpr-Std-Clr, ! Name
  ,                                       ! Surface Rendering Name
  {93357459-175c-4fd3-8fa9-4af11d4c976e}; ! Layer 1

OS:WindowMaterial:Glazing,
  {93357459-175c-4fd3-8fa9-4af11d4c976e}, ! Handle
  Theoretical Glass [346],                ! Name
  SpectralAverage,                        ! Optical Data Type
  ,                                       ! Window Glass Spectral Data Set Name
  0.003,                                  ! Thickness {m}
  0.413426,                               ! Solar Transmittance at Normal Incidence
  0.536574,                               ! Front Side Solar Reflectance at Normal Incidence
  0.536574,                               ! Back Side Solar Reflectance at Normal Incidence
  0.410537,                               ! Visible Transmittance at Normal Incidence
  0.539463,                               ! Front Side Visible Reflectance at Normal Incidence
  0.539463,                               ! Back Side Visible Reflectance at Normal Incidence
  0,                                      ! Infrared Transmittance at Normal Incidence
  0.9,                                    ! Front Side Infrared Hemispherical Emissivity
  0.9,                                    ! Back Side Infrared Hemispherical Emissivity
  0.0161105;                              ! Conductivity {W/m-K}

OS:ComponentCost:LineItem,
  {7bdf8732-9c3f-477f-ae6f-57a4aac3ed4b}, ! Handle
  90.1 Windows Window Fixed 2514 Vnl-ClrMpr-Std-Clr, ! Name
  ,                                       ! Type
  Construction,                           ! Line Item Type
  90.1 Windows Window Fixed 2514 Vnl-ClrMpr-Std-Clr, ! Item Name
  ,                                       ! Object End Use Key
  ,                                       ! Quantity {dimensionless}
  0,                                      ! Material Cost {$}
  CostPerArea;                            ! Material Cost Units

OS:ComponentData,
  {5f1bab66-806d-4e25-9dbf-7ee4b64e714a}, ! Handle
  Component Data 1,                       ! Name
  {20b231b5-707f-41db-a8ea-1a19e5271453}, ! UUID
  {905afd5b-edfd-4634-bc8c-7f00f8219c7c}, ! Version UUID
  1363981009,                             ! Creation Timestamp
  1363981009,                             ! Version Timestamp
  {32c8758d-10c1-4035-8fe4-ab29fd93bd8d}, ! Name of Object 1
  {93357459-175c-4fd3-8fa9-4af11d4c976e}, ! Name of Object 2
  {7bdf8732-9c3f-477f-ae6f-57a4aac3ed4b}; ! Name of Object 3

