
OS:Version,
  {d558818c-b38c-46d5-9633-4144a493a727}, ! Handle
  0.9.3;                                  ! Version Identifier

OS:Construction,
  {ffd97138-1456-4d5b-b171-794961204e86}, ! Handle
  90.1 Windows Window Fixed 2514 Vnl-ClrMpr-Std-Clr, ! Name
  ,                                       ! Surface Rendering Name
  {67920150-0b6b-4dcc-a1ac-5f927ec52675}; ! Layer 1

OS:WindowMaterial:Glazing,
  {67920150-0b6b-4dcc-a1ac-5f927ec52675}, ! Handle
  Theoretical Glass [346],                ! Name
  SpectralAverage,                        ! Optical Data Type
  ,                                       ! Window Glass Spectral Data Set Name
  0.003,                                  ! Thickness {m}
  0.413426,                               ! Solar Transmittance at Normal Incidence
  0.536574,                               ! Front Side Solar Reflectance at Normal Incidence
  0.536574,                               ! Back Side Solar Reflectance at Normal Incidence
  0.410537,                               ! Visible Transmittance at Normal Incidence
  0.539463,                               ! Front Side Visible Reflectance at Normal Incidence
  0.539463,                               ! Back Side Visible Reflectance at Normal Incidence
  0,                                      ! Infrared Transmittance at Normal Incidence
  0.9,                                    ! Front Side Infrared Hemispherical Emissivity
  0.9,                                    ! Back Side Infrared Hemispherical Emissivity
  0.0161105;                              ! Conductivity {W/m-K}

OS:ComponentCost:LineItem,
  {ae7e8796-93dd-4784-8f14-f3492cb5a3c8}, ! Handle
  90.1 Windows Window Fixed 2514 Vnl-ClrMpr-Std-Clr, ! Name
  ,                                       ! Type
  Construction,                           ! Line Item Type
  90.1 Windows Window Fixed 2514 Vnl-ClrMpr-Std-Clr, ! Item Name
  ,                                       ! Object End Use Key
  ,                                       ! Quantity {dimensionless}
  0,                                      ! Material Cost {$}
  CostPerArea;                            ! Material Cost Units

