
OS:Version,
  {af22d32c-3e68-414f-bbeb-c55704babde7}, ! Handle
  0.9.3;                                  ! Version Identifier

OS:Construction,
  {0dfa4000-9767-4dc8-aa00-67d5f62ab87e}, ! Handle
  90.1 Constructions Ext Wall Steel-Framed R-13.0 + R-12.5 ci, ! Name
  ,                                       ! Surface Rendering Name
  {ccac154f-3170-4267-b897-0ae95fb81210}, ! Layer 1
  {2517734b-d83e-44a2-8319-28179972e3fd}, ! Layer 2
  {22bfed81-4389-4337-898e-ef39761b4c9e}; ! Layer 3

OS:Material:NoMass,
  {ccac154f-3170-4267-b897-0ae95fb81210}, ! Handle
  MAT-SHEATH,                             ! Name
  Rough,                                  ! Roughness
  0.36256,                                ! Thermal Resistance {m2-K/W}
  0.9,                                    ! Thermal Absorptance
  0.7,                                    ! Solar Absorptance
  0.7;                                    ! Visible Absorptance

OS:Material,
  {2517734b-d83e-44a2-8319-28179972e3fd}, ! Handle
  Wall Insulation [106],                  ! Name
  MediumRough,                            ! Roughness
  0.135915,                               ! Thickness {m}
  0.045,                                  ! Conductivity {W/m-K}
  265,                                    ! Density {kg/m3}
  836.8,                                  ! Specific Heat {J/kg-K}
  0.9,                                    ! Thermal Absorptance
  0.7,                                    ! Solar Absorptance
  0.7;                                    ! Visible Absorptance

OS:Material,
  {22bfed81-4389-4337-898e-ef39761b4c9e}, ! Handle
  1/2IN Gypsum,                           ! Name
  Smooth,                                 ! Roughness
  0.01271,                                ! Thickness {m}
  0.16,                                   ! Conductivity {W/m-K}
  784.9,                                  ! Density {kg/m3}
  830,                                    ! Specific Heat {J/kg-K}
  0.9,                                    ! Thermal Absorptance
  0.92,                                   ! Solar Absorptance
  0.92;                                   ! Visible Absorptance

OS:ComponentCost:LineItem,
  {39d7d164-0f3a-469e-ae62-7161ddc9de7f}, ! Handle
  90.1 Constructions Ext Wall Steel-Framed R-13.0 + R-12.5 ci, ! Name
  ,                                       ! Type
  Construction,                           ! Line Item Type
  90.1 Constructions Ext Wall Steel-Framed R-13.0 + R-12.5 ci, ! Item Name
  ,                                       ! Object End Use Key
  ,                                       ! Quantity {dimensionless}
  99.298,                                 ! Material Cost {$}
  CostPerArea;                            ! Material Cost Units

OS:ComponentData,
  {8562d1bf-7bbf-48af-bea6-6d8421cd5c50}, ! Handle
  Component Data 1,                       ! Name
  {dfccd870-ac6d-4a12-8e57-1e2b70ad34e1}, ! UUID
  {ed1b677b-1041-4727-9ffb-1faa279b2da8}, ! Version UUID
  1363980995,                             ! Creation Timestamp
  1363980995,                             ! Version Timestamp
  {0dfa4000-9767-4dc8-aa00-67d5f62ab87e}, ! Name of Object 1
  {ccac154f-3170-4267-b897-0ae95fb81210}, ! Name of Object 2
  {2517734b-d83e-44a2-8319-28179972e3fd}, ! Name of Object 3
  {22bfed81-4389-4337-898e-ef39761b4c9e}, ! Name of Object 4
  {39d7d164-0f3a-469e-ae62-7161ddc9de7f}; ! Name of Object 5

