
OS:Version,
  {baf368d5-d470-4965-90b8-30780f6f0c3f}, ! Handle
  0.9.3;                                  ! Version Identifier

OS:Material,
  {fae9e91f-1ffc-4496-ae3d-30db6b60924b}, ! Handle
  1/2IN Gypsum,                           ! Name
  Smooth,                                 ! Roughness
  0.01271,                                ! Thickness {m}
  0.16,                                   ! Conductivity {W/m-K}
  784.9,                                  ! Density {kg/m3}
  830,                                    ! Specific Heat {J/kg-K}
  0.9,                                    ! Thermal Absorptance
  0.92,                                   ! Solar Absorptance
  0.92;                                   ! Visible Absorptance

OS:ComponentCost:LineItem,
  {2314b227-e0e4-48c7-b631-b5126ff1be08}, ! Handle
  90.1 Constructions Ext Wall Steel-Framed R-13.0 + R-12.5 ci, ! Name
  ,                                       ! Type
  Construction,                           ! Line Item Type
  90.1 Constructions Ext Wall Steel-Framed R-13.0 + R-12.5 ci, ! Item Name
  ,                                       ! Object End Use Key
  ,                                       ! Quantity {dimensionless}
  99.298,                                 ! Material Cost {$}
  CostPerArea;                            ! Material Cost Units

OS:Material:NoMass,
  {df790a19-c559-4dbd-9d95-9cf87653d2c6}, ! Handle
  MAT-SHEATH,                             ! Name
  Rough,                                  ! Roughness
  0.36256,                                ! Thermal Resistance {m2-K/W}
  0.9,                                    ! Thermal Absorptance
  0.7,                                    ! Solar Absorptance
  0.7;                                    ! Visible Absorptance

OS:Construction,
  {f0094048-7f57-41bd-9752-5f4f0ff29ba1}, ! Handle
  90.1 Constructions Ext Wall Steel-Framed R-13.0 + R-12.5 ci, ! Name
  ,                                       ! Surface Rendering Name
  {df790a19-c559-4dbd-9d95-9cf87653d2c6}, ! Layer 1
  {8c5aa1b0-b4d3-4288-9fd7-24c2582703d2}, ! Layer 2
  {fae9e91f-1ffc-4496-ae3d-30db6b60924b}; ! Layer 3

OS:Material,
  {8c5aa1b0-b4d3-4288-9fd7-24c2582703d2}, ! Handle
  Wall Insulation [106],                  ! Name
  MediumRough,                            ! Roughness
  0.135915,                               ! Thickness {m}
  0.045,                                  ! Conductivity {W/m-K}
  265,                                    ! Density {kg/m3}
  836.8,                                  ! Specific Heat {J/kg-K}
  0.9,                                    ! Thermal Absorptance
  0.7,                                    ! Solar Absorptance
  0.7;                                    ! Visible Absorptance

