
OS:Version,
  {ed7e0690-7f3b-418e-bb91-5b00030450f5}, ! Handle
  0.9.3;                                  ! Version Identifier

OS:Construction,
  {9a519450-65b2-4ab8-9438-966d7d780f86}, ! Handle
  90.1-1999 Res B25 Ext Slab Unheated - 4in Slab without Carpet, ! Name
  ,                                       ! Surface Rendering Name
  {73f2179d-e249-45d2-8948-3b5501c07564}; ! Layer 1

OS:Material,
  {73f2179d-e249-45d2-8948-3b5501c07564}, ! Handle
  MAT-CC05 4 HW CONCRETE,                 ! Name
  Rough,                                  ! Roughness
  0.1016,                                 ! Thickness {m}
  1.311,                                  ! Conductivity {W/m-K}
  2240,                                   ! Density {kg/m3}
  836.8,                                  ! Specific Heat {J/kg-K}
  0.9,                                    ! Thermal Absorptance
  0.7,                                    ! Solar Absorptance
  0.7;                                    ! Visible Absorptance

OS:ComponentCost:LineItem,
  {30ccf73a-ceae-4bb9-afdf-66eb0a80afc6}, ! Handle
  90.1-1999 Res B25 Ext Slab Unheated - 4in Slab without Carpet, ! Name
  ,                                       ! Type
  Construction,                           ! Line Item Type
  90.1-1999 Res B25 Ext Slab Unheated - 4in Slab without Carpet, ! Item Name
  ,                                       ! Object End Use Key
  ,                                       ! Quantity {dimensionless}
  45.52,                                  ! Material Cost {$}
  CostPerArea;                            ! Material Cost Units

