
OS:Version,
  {060032c1-ce74-4d77-a9cc-b1f51b72bae6}, ! Handle
  0.9.3;                                  ! Version Identifier

OS:Construction,
  {fc0b2369-f379-47f8-89a7-e98a1d39ee53}, ! Handle
  90.1-2001 Nonres B14 Skylight without Curb, ! Name
  ,                                       ! Surface Rendering Name
  {0cdf252c-bbd6-41c2-a399-e9f3ba88d89a}; ! Layer 1

OS:WindowMaterial:Glazing,
  {0cdf252c-bbd6-41c2-a399-e9f3ba88d89a}, ! Handle
  Theoretical Glass [32],                 ! Name
  SpectralAverage,                        ! Optical Data Type
  ,                                       ! Window Glass Spectral Data Set Name
  0.003,                                  ! Thickness {m}
  0.481761,                               ! Solar Transmittance at Normal Incidence
  0.468239,                               ! Front Side Solar Reflectance at Normal Incidence
  0.468239,                               ! Back Side Solar Reflectance at Normal Incidence
  0.529698,                               ! Visible Transmittance at Normal Incidence
  0.420302,                               ! Front Side Visible Reflectance at Normal Incidence
  0.420302,                               ! Back Side Visible Reflectance at Normal Incidence
  0,                                      ! Infrared Transmittance at Normal Incidence
  0.9,                                    ! Front Side Infrared Hemispherical Emissivity
  0.9,                                    ! Back Side Infrared Hemispherical Emissivity
  0.03026;                                ! Conductivity {W/m-K}

OS:ComponentCost:LineItem,
  {e2ff82fd-ad07-477c-b555-83c2338af2fd}, ! Handle
  90.1-2001 Nonres B14 Skylight without Curb, ! Name
  ,                                       ! Type
  Construction,                           ! Line Item Type
  90.1-2001 Nonres B14 Skylight without Curb, ! Item Name
  ,                                       ! Object End Use Key
  ,                                       ! Quantity {dimensionless}
  514.818,                                ! Material Cost {$}
  CostPerArea;                            ! Material Cost Units

OS:ComponentData,
  {4511aeb6-e745-47d2-98f7-7f6bf27111a7}, ! Handle
  Component Data 1,                       ! Name
  {e94a1179-d7a8-4307-aade-6722a03f7db7}, ! UUID
  {24a9d43f-005a-4f31-b322-62770f4a88c7}, ! Version UUID
  1363981367,                             ! Creation Timestamp
  1363981367,                             ! Version Timestamp
  {fc0b2369-f379-47f8-89a7-e98a1d39ee53}, ! Name of Object 1
  {0cdf252c-bbd6-41c2-a399-e9f3ba88d89a}, ! Name of Object 2
  {e2ff82fd-ad07-477c-b555-83c2338af2fd}; ! Name of Object 3

