
OS:Version,
  {bba37280-facf-4257-b802-e2aa231bbbb1}, ! Handle
  0.9.3;                                  ! Version Identifier

OS:ComponentCost:LineItem,
  {c5218bcb-a5ce-4014-8a1a-1d93350960be}, ! Handle
  90.1-2001 Nonres B1 Window Fixed,       ! Name
  ,                                       ! Type
  Construction,                           ! Line Item Type
  90.1-2001 Nonres B1 Window Fixed,       ! Item Name
  ,                                       ! Object End Use Key
  ,                                       ! Quantity {dimensionless}
  473.607,                                ! Material Cost {$}
  CostPerArea;                            ! Material Cost Units

OS:Construction,
  {170a72cf-5e34-400d-9e10-cdda523ae78e}, ! Handle
  90.1-2001 Nonres B1 Window Fixed,       ! Name
  ,                                       ! Surface Rendering Name
  {71217cbc-95a6-490b-8eba-1c2a59839110}; ! Layer 1

OS:WindowMaterial:Glazing,
  {71217cbc-95a6-490b-8eba-1c2a59839110}, ! Handle
  Theoretical Glass [4],                  ! Name
  SpectralAverage,                        ! Optical Data Type
  ,                                       ! Window Glass Spectral Data Set Name
  0.003,                                  ! Thickness {m}
  0.326699,                               ! Solar Transmittance at Normal Incidence
  0.623301,                               ! Front Side Solar Reflectance at Normal Incidence
  0.623301,                               ! Back Side Solar Reflectance at Normal Incidence
  0.352127,                               ! Visible Transmittance at Normal Incidence
  0.597873,                               ! Front Side Visible Reflectance at Normal Incidence
  0.597873,                               ! Back Side Visible Reflectance at Normal Incidence
  0,                                      ! Infrared Transmittance at Normal Incidence
  0.999,                                  ! Front Side Infrared Hemispherical Emissivity
  0.999,                                  ! Back Side Infrared Hemispherical Emissivity
  3.36874;                                ! Conductivity {W/m-K}

