
OS:Version,
  {8fdbc059-a273-440c-97dc-a90c8033d51e}, ! Handle
  0.9.3;                                  ! Version Identifier

OS:ComponentCost:LineItem,
  {0924be75-21bd-4f55-91b2-0c6a8fc69d5b}, ! Handle
  90.1-2007 Nonres 7A Ext Slab Unheated - 4in Slab without Carpet, ! Name
  ,                                       ! Type
  Construction,                           ! Line Item Type
  90.1-2007 Nonres 7A Ext Slab Unheated - 4in Slab without Carpet, ! Item Name
  ,                                       ! Object End Use Key
  ,                                       ! Quantity {dimensionless}
  45.52,                                  ! Material Cost {$}
  CostPerArea;                            ! Material Cost Units

OS:Construction,
  {40ef8121-f5e8-45f1-9c38-e1f38c16d889}, ! Handle
  90.1-2007 Nonres 7A Ext Slab Unheated - 4in Slab without Carpet, ! Name
  ,                                       ! Surface Rendering Name
  {e1d2b2a4-f5ef-4881-8105-b7cba1cb83a6}; ! Layer 1

OS:Material,
  {e1d2b2a4-f5ef-4881-8105-b7cba1cb83a6}, ! Handle
  MAT-CC05 4 HW CONCRETE,                 ! Name
  Rough,                                  ! Roughness
  0.1016,                                 ! Thickness {m}
  1.311,                                  ! Conductivity {W/m-K}
  2240,                                   ! Density {kg/m3}
  836.8,                                  ! Specific Heat {J/kg-K}
  0.9,                                    ! Thermal Absorptance
  0.7,                                    ! Solar Absorptance
  0.7;                                    ! Visible Absorptance

