
OS:Version,
  {177dcf81-44a5-4799-a4d8-ec02e404a617}, ! Handle
  0.9.3;                                  ! Version Identifier

OS:Construction,
  {c02193eb-bb0b-4f10-8de1-d290b854a3c2}, ! Handle
  90.1-2007 Nonres 7A Ext Slab Unheated - 4in Slab without Carpet, ! Name
  ,                                       ! Surface Rendering Name
  {c734f569-937c-4c29-98d6-6f95af8ca4fa}; ! Layer 1

OS:Material,
  {c734f569-937c-4c29-98d6-6f95af8ca4fa}, ! Handle
  MAT-CC05 4 HW CONCRETE,                 ! Name
  Rough,                                  ! Roughness
  0.1016,                                 ! Thickness {m}
  1.311,                                  ! Conductivity {W/m-K}
  2240,                                   ! Density {kg/m3}
  836.8,                                  ! Specific Heat {J/kg-K}
  0.9,                                    ! Thermal Absorptance
  0.7,                                    ! Solar Absorptance
  0.7;                                    ! Visible Absorptance

OS:ComponentCost:LineItem,
  {3833a18d-e857-4cf7-92c5-de2e16915cb6}, ! Handle
  90.1-2007 Nonres 7A Ext Slab Unheated - 4in Slab without Carpet, ! Name
  ,                                       ! Type
  Construction,                           ! Line Item Type
  90.1-2007 Nonres 7A Ext Slab Unheated - 4in Slab without Carpet, ! Item Name
  ,                                       ! Object End Use Key
  ,                                       ! Quantity {dimensionless}
  45.52,                                  ! Material Cost {$}
  CostPerArea;                            ! Material Cost Units

OS:ComponentData,
  {a3367701-1509-48d9-a22a-e1d74b1d8461}, ! Handle
  Component Data 1,                       ! Name
  {8a3a94e6-caa7-40e6-bca6-ac9ab0509741}, ! UUID
  {41ae26c2-e811-40c1-868a-2f652ec69193}, ! Version UUID
  1363981821,                             ! Creation Timestamp
  1363981821,                             ! Version Timestamp
  {c02193eb-bb0b-4f10-8de1-d290b854a3c2}, ! Name of Object 1
  {c734f569-937c-4c29-98d6-6f95af8ca4fa}, ! Name of Object 2
  {3833a18d-e857-4cf7-92c5-de2e16915cb6}; ! Name of Object 3

