
OS:Version,
  {8edbf6ed-3a8e-4989-a535-dbdfe32b6a5e}, ! Handle
  0.9.3;                                  ! Version Identifier

OS:Construction,
  {c94d760e-8328-44f0-b74c-fa8b906bc739}, ! Handle
  90.1-2001 Res B18 Roof Metal Building,  ! Name
  ,                                       ! Surface Rendering Name
  {e11532cb-cf81-49e9-a0fa-e39d3067c41f}, ! Layer 1
  {fdcca24b-3c40-4dd2-8181-b47e438263f2}; ! Layer 2

OS:Material,
  {e11532cb-cf81-49e9-a0fa-e39d3067c41f}, ! Handle
  Metal Roofing,                          ! Name
  MediumSmooth,                           ! Roughness
  0.001524,                               ! Thickness {m}
  45.006,                                 ! Conductivity {W/m-K}
  7680,                                   ! Density {kg/m3}
  418.4,                                  ! Specific Heat {J/kg-K}
  0.9,                                    ! Thermal Absorptance
  0.7,                                    ! Solar Absorptance
  0.3;                                    ! Visible Absorptance

OS:Material,
  {fdcca24b-3c40-4dd2-8181-b47e438263f2}, ! Handle
  Roof Insulation [1],                    ! Name
  MediumRough,                            ! Roughness
  0.123533,                               ! Thickness {m}
  0.049,                                  ! Conductivity {W/m-K}
  265,                                    ! Density {kg/m3}
  836.8,                                  ! Specific Heat {J/kg-K}
  0.9,                                    ! Thermal Absorptance
  0.7,                                    ! Solar Absorptance
  0.7;                                    ! Visible Absorptance

OS:ComponentCost:LineItem,
  {fab98917-632c-49b1-9fb3-72651b611c63}, ! Handle
  90.1-2001 Res B18 Roof Metal Building,  ! Name
  ,                                       ! Type
  Construction,                           ! Line Item Type
  90.1-2001 Res B18 Roof Metal Building,  ! Item Name
  ,                                       ! Object End Use Key
  ,                                       ! Quantity {dimensionless}
  38.206,                                 ! Material Cost {$}
  CostPerArea;                            ! Material Cost Units

