
OS:Version,
  {f50f565b-e7cd-43b2-9fa0-baaa32933a9d}, ! Handle
  0.9.3;                                  ! Version Identifier

OS:Construction,
  {6ee930ca-9123-4aab-9fa8-7f3d46314845}, ! Handle
  90.1-2001 Res B18 Roof Metal Building,  ! Name
  ,                                       ! Surface Rendering Name
  {977e1960-4a2f-4882-a6ba-4498641bdfe8}, ! Layer 1
  {dc3d6f40-36d3-4940-b97a-a6ec530724de}; ! Layer 2

OS:Material,
  {977e1960-4a2f-4882-a6ba-4498641bdfe8}, ! Handle
  Metal Roofing,                          ! Name
  MediumSmooth,                           ! Roughness
  0.001524,                               ! Thickness {m}
  45.006,                                 ! Conductivity {W/m-K}
  7680,                                   ! Density {kg/m3}
  418.4,                                  ! Specific Heat {J/kg-K}
  0.9,                                    ! Thermal Absorptance
  0.7,                                    ! Solar Absorptance
  0.3;                                    ! Visible Absorptance

OS:Material,
  {dc3d6f40-36d3-4940-b97a-a6ec530724de}, ! Handle
  Roof Insulation [1],                    ! Name
  MediumRough,                            ! Roughness
  0.123533,                               ! Thickness {m}
  0.049,                                  ! Conductivity {W/m-K}
  265,                                    ! Density {kg/m3}
  836.8,                                  ! Specific Heat {J/kg-K}
  0.9,                                    ! Thermal Absorptance
  0.7,                                    ! Solar Absorptance
  0.7;                                    ! Visible Absorptance

OS:ComponentCost:LineItem,
  {b4fb7ddb-5b15-4bf1-978f-f74d995ee90d}, ! Handle
  90.1-2001 Res B18 Roof Metal Building,  ! Name
  ,                                       ! Type
  Construction,                           ! Line Item Type
  90.1-2001 Res B18 Roof Metal Building,  ! Item Name
  ,                                       ! Object End Use Key
  ,                                       ! Quantity {dimensionless}
  38.206,                                 ! Material Cost {$}
  CostPerArea;                            ! Material Cost Units

OS:ComponentData,
  {ab414839-5a02-4e9f-bc2e-3f38db3607eb}, ! Handle
  Component Data 1,                       ! Name
  {d26518af-6e3d-49d5-b356-38cfe09ae3b6}, ! UUID
  {8657921e-221a-4112-a5a9-c6ef439cc8bb}, ! Version UUID
  1363981557,                             ! Creation Timestamp
  1363981557,                             ! Version Timestamp
  {6ee930ca-9123-4aab-9fa8-7f3d46314845}, ! Name of Object 1
  {977e1960-4a2f-4882-a6ba-4498641bdfe8}, ! Name of Object 2
  {dc3d6f40-36d3-4940-b97a-a6ec530724de}, ! Name of Object 3
  {b4fb7ddb-5b15-4bf1-978f-f74d995ee90d}; ! Name of Object 4

