
OS:Version,
  {2a62d32d-be87-4f93-8776-a29bc6924800}, ! Handle
  0.9.3;                                  ! Version Identifier

OS:Construction,
  {889f5590-bc01-4859-aa21-11746ae0cac1}, ! Handle
  90.1-2001 Nonres B4 Skylight without Curb, ! Name
  ,                                       ! Surface Rendering Name
  {66315079-0f22-46f7-b6ef-8836496b0680}; ! Layer 1

OS:WindowMaterial:Glazing,
  {66315079-0f22-46f7-b6ef-8836496b0680}, ! Handle
  Theoretical Glass [12],                 ! Name
  SpectralAverage,                        ! Optical Data Type
  ,                                       ! Window Glass Spectral Data Set Name
  0.003,                                  ! Thickness {m}
  0.595954,                               ! Solar Transmittance at Normal Incidence
  0.354046,                               ! Front Side Solar Reflectance at Normal Incidence
  0.354046,                               ! Back Side Solar Reflectance at Normal Incidence
  0.671296,                               ! Visible Transmittance at Normal Incidence
  0.278704,                               ! Front Side Visible Reflectance at Normal Incidence
  0.278704,                               ! Back Side Visible Reflectance at Normal Incidence
  0,                                      ! Infrared Transmittance at Normal Incidence
  0.999,                                  ! Front Side Infrared Hemispherical Emissivity
  0.999,                                  ! Back Side Infrared Hemispherical Emissivity
  299.383;                                ! Conductivity {W/m-K}

OS:ComponentCost:LineItem,
  {1e905112-ce97-4805-a383-633b6f4873c2}, ! Handle
  90.1-2001 Nonres B4 Skylight without Curb, ! Name
  ,                                       ! Type
  Construction,                           ! Line Item Type
  90.1-2001 Nonres B4 Skylight without Curb, ! Item Name
  ,                                       ! Object End Use Key
  ,                                       ! Quantity {dimensionless}
  459.189,                                ! Material Cost {$}
  CostPerArea;                            ! Material Cost Units

