
OS:Version,
  {0fbac429-c8a0-44e9-89ad-e554d17feb7f}, ! Handle
  0.9.3;                                  ! Version Identifier

OS:Construction,
  {58ff12e5-4d95-44ba-9231-b34fd1dd7655}, ! Handle
  90.1 Windows Window Fixed 1302 Brk-Grn, ! Name
  ,                                       ! Surface Rendering Name
  {0d0095d2-c6dd-4283-81a9-d53535921baf}; ! Layer 1

OS:WindowMaterial:Glazing,
  {0d0095d2-c6dd-4283-81a9-d53535921baf}, ! Handle
  Theoretical Glass [286],                ! Name
  SpectralAverage,                        ! Optical Data Type
  ,                                       ! Window Glass Spectral Data Set Name
  0.003,                                  ! Thickness {m}
  0.565699,                               ! Solar Transmittance at Normal Incidence
  0.384301,                               ! Front Side Solar Reflectance at Normal Incidence
  0.384301,                               ! Back Side Solar Reflectance at Normal Incidence
  0.669367,                               ! Visible Transmittance at Normal Incidence
  0.280633,                               ! Front Side Visible Reflectance at Normal Incidence
  0.280633,                               ! Back Side Visible Reflectance at Normal Incidence
  0,                                      ! Infrared Transmittance at Normal Incidence
  0.95,                                   ! Front Side Infrared Hemispherical Emissivity
  0.95,                                   ! Back Side Infrared Hemispherical Emissivity
  0.593551;                               ! Conductivity {W/m-K}

OS:ComponentCost:LineItem,
  {adcf89bf-98e3-41f8-8730-bed397786ad8}, ! Handle
  90.1 Windows Window Fixed 1302 Brk-Grn, ! Name
  ,                                       ! Type
  Construction,                           ! Line Item Type
  90.1 Windows Window Fixed 1302 Brk-Grn, ! Item Name
  ,                                       ! Object End Use Key
  ,                                       ! Quantity {dimensionless}
  0,                                      ! Material Cost {$}
  CostPerArea;                            ! Material Cost Units

