
OS:Version,
  {1d8f4f61-1d77-4317-af41-fb9c609ffbd3}, ! Handle
  0.9.3;                                  ! Version Identifier

OS:Construction,
  {66f45734-d276-4215-845c-b9799100ded6}, ! Handle
  AEDG-SmOffice 5B Ext Wall Wood-Framed and Other, ! Name
  ,                                       ! Surface Rendering Name
  {d9c44d0e-8d67-43fc-b5dd-b03c4cc84ac7}, ! Layer 1
  {c723b177-c87e-43ea-abc1-72701d80bf71}, ! Layer 2
  {f2807412-753a-4747-8ee9-a03e9e453c3e}; ! Layer 3

OS:Material,
  {d9c44d0e-8d67-43fc-b5dd-b03c4cc84ac7}, ! Handle
  Wood Siding,                            ! Name
  MediumSmooth,                           ! Roughness
  0.01,                                   ! Thickness {m}
  0.11,                                   ! Conductivity {W/m-K}
  544.62,                                 ! Density {kg/m3}
  1210,                                   ! Specific Heat {J/kg-K}
  0.9,                                    ! Thermal Absorptance
  0.78,                                   ! Solar Absorptance
  0.78;                                   ! Visible Absorptance

OS:Material,
  {c723b177-c87e-43ea-abc1-72701d80bf71}, ! Handle
  Wall Insulation [11],                   ! Name
  MediumRough,                            ! Roughness
  0.109279,                               ! Thickness {m}
  0.045,                                  ! Conductivity {W/m-K}
  265,                                    ! Density {kg/m3}
  836.8,                                  ! Specific Heat {J/kg-K}
  0.9,                                    ! Thermal Absorptance
  0.7,                                    ! Solar Absorptance
  0.7;                                    ! Visible Absorptance

OS:Material,
  {f2807412-753a-4747-8ee9-a03e9e453c3e}, ! Handle
  1/2IN Gypsum,                           ! Name
  Smooth,                                 ! Roughness
  0.01271,                                ! Thickness {m}
  0.16,                                   ! Conductivity {W/m-K}
  784.9,                                  ! Density {kg/m3}
  830,                                    ! Specific Heat {J/kg-K}
  0.9,                                    ! Thermal Absorptance
  0.92,                                   ! Solar Absorptance
  0.92;                                   ! Visible Absorptance

OS:ComponentCost:LineItem,
  {d8221cbb-2084-45d4-8973-17c7510a4081}, ! Handle
  AEDG-SmOffice 5B Ext Wall Wood-Framed and Other, ! Name
  ,                                       ! Type
  Construction,                           ! Line Item Type
  AEDG-SmOffice 5B Ext Wall Wood-Framed and Other, ! Item Name
  ,                                       ! Object End Use Key
  ,                                       ! Quantity {dimensionless}
  77.608,                                 ! Material Cost {$}
  CostPerArea;                            ! Material Cost Units

