
OS:Version,
  {ad369454-55a3-483d-946c-a4361b329fa6}, ! Handle
  0.9.3;                                  ! Version Identifier

OS:ComponentCost:LineItem,
  {da5a9f32-d863-4ece-a326-fe68c6138148}, ! Handle
  189.1-2009 Nonres 5B Ext Wall Wood-Framed and Other, ! Name
  ,                                       ! Type
  Construction,                           ! Line Item Type
  189.1-2009 Nonres 5B Ext Wall Wood-Framed and Other, ! Item Name
  ,                                       ! Object End Use Key
  ,                                       ! Quantity {dimensionless}
  80.609,                                 ! Material Cost {$}
  CostPerArea;                            ! Material Cost Units

OS:Material,
  {54f0c354-be2f-4f01-9257-ae941a13d496}, ! Handle
  Wood Siding,                            ! Name
  MediumSmooth,                           ! Roughness
  0.01,                                   ! Thickness {m}
  0.11,                                   ! Conductivity {W/m-K}
  544.62,                                 ! Density {kg/m3}
  1210,                                   ! Specific Heat {J/kg-K}
  0.9,                                    ! Thermal Absorptance
  0.78,                                   ! Solar Absorptance
  0.78;                                   ! Visible Absorptance

OS:Construction,
  {428582dd-aae5-4dad-9627-47e7cca6a273}, ! Handle
  189.1-2009 Nonres 5B Ext Wall Wood-Framed and Other, ! Name
  ,                                       ! Surface Rendering Name
  {54f0c354-be2f-4f01-9257-ae941a13d496}, ! Layer 1
  {4db5b589-d790-45be-9fdf-874e2de530e4}, ! Layer 2
  {114e42d5-b24d-4755-b582-ba5ccd7af2cc}; ! Layer 3

OS:Material,
  {4db5b589-d790-45be-9fdf-874e2de530e4}, ! Handle
  Wall Insulation [41],                   ! Name
  MediumRough,                            ! Roughness
  0.140486,                               ! Thickness {m}
  0.045,                                  ! Conductivity {W/m-K}
  265,                                    ! Density {kg/m3}
  836.8,                                  ! Specific Heat {J/kg-K}
  0.9,                                    ! Thermal Absorptance
  0.7,                                    ! Solar Absorptance
  0.7;                                    ! Visible Absorptance

OS:Material,
  {114e42d5-b24d-4755-b582-ba5ccd7af2cc}, ! Handle
  1/2IN Gypsum,                           ! Name
  Smooth,                                 ! Roughness
  0.01271,                                ! Thickness {m}
  0.16,                                   ! Conductivity {W/m-K}
  784.9,                                  ! Density {kg/m3}
  830,                                    ! Specific Heat {J/kg-K}
  0.9,                                    ! Thermal Absorptance
  0.92,                                   ! Solar Absorptance
  0.92;                                   ! Visible Absorptance

