
OS:Version,
  {72733a4e-fa55-4619-ad11-94398973f5fd}, ! Handle
  0.9.3;                                  ! Version Identifier

OS:Construction,
  {259ff5bf-ca22-4ed3-a2e0-a895cb22052d}, ! Handle
  90.1-2001 Res B2 Window Fixed,          ! Name
  ,                                       ! Surface Rendering Name
  {f97c2e0d-b476-48ef-a70a-e61709f0171b}; ! Layer 1

OS:WindowMaterial:Glazing,
  {f97c2e0d-b476-48ef-a70a-e61709f0171b}, ! Handle
  Theoretical Glass [62],                 ! Name
  SpectralAverage,                        ! Optical Data Type
  ,                                       ! Window Glass Spectral Data Set Name
  0.003,                                  ! Thickness {m}
  0.316118,                               ! Solar Transmittance at Normal Incidence
  0.633882,                               ! Front Side Solar Reflectance at Normal Incidence
  0.633882,                               ! Back Side Solar Reflectance at Normal Incidence
  0.330719,                               ! Visible Transmittance at Normal Incidence
  0.619281,                               ! Front Side Visible Reflectance at Normal Incidence
  0.619281,                               ! Back Side Visible Reflectance at Normal Incidence
  0,                                      ! Infrared Transmittance at Normal Incidence
  0.999,                                  ! Front Side Infrared Hemispherical Emissivity
  0.999,                                  ! Back Side Infrared Hemispherical Emissivity
  9.36219;                                ! Conductivity {W/m-K}

OS:ComponentCost:LineItem,
  {3d8ee5d4-01ae-4bcb-a8d8-f2567100ed5a}, ! Handle
  90.1-2001 Res B2 Window Fixed,          ! Name
  ,                                       ! Type
  Construction,                           ! Line Item Type
  90.1-2001 Res B2 Window Fixed,          ! Item Name
  ,                                       ! Object End Use Key
  ,                                       ! Quantity {dimensionless}
  498.248,                                ! Material Cost {$}
  CostPerArea;                            ! Material Cost Units

