
OS:Version,
  {58d2f2f0-7359-427e-8a53-67d5f902f5e2}, ! Handle
  0.9.3;                                  ! Version Identifier

OS:ComponentCost:LineItem,
  {17b4e0c8-c5f6-48a3-8e79-d9002f97f5cd}, ! Handle
  189.1-2009 Res 8A Ext Wall Wood-Framed and Other, ! Name
  ,                                       ! Type
  Construction,                           ! Line Item Type
  189.1-2009 Res 8A Ext Wall Wood-Framed and Other, ! Item Name
  ,                                       ! Object End Use Key
  ,                                       ! Quantity {dimensionless}
  89.987,                                 ! Material Cost {$}
  CostPerArea;                            ! Material Cost Units

OS:Material,
  {4f7edc86-8838-44dc-a9ce-8384934a1475}, ! Handle
  Wall Insulation [49],                   ! Name
  MediumRough,                            ! Roughness
  0.235164,                               ! Thickness {m}
  0.045,                                  ! Conductivity {W/m-K}
  265,                                    ! Density {kg/m3}
  836.8,                                  ! Specific Heat {J/kg-K}
  0.9,                                    ! Thermal Absorptance
  0.7,                                    ! Solar Absorptance
  0.7;                                    ! Visible Absorptance

OS:Construction,
  {e9e90cd9-24d0-438e-b2b4-1e4483a42053}, ! Handle
  189.1-2009 Res 8A Ext Wall Wood-Framed and Other, ! Name
  ,                                       ! Surface Rendering Name
  {29fc7a62-8721-4c9b-9455-ac6b63c5a0b5}, ! Layer 1
  {4f7edc86-8838-44dc-a9ce-8384934a1475}, ! Layer 2
  {2dd80ec3-1d0c-4d74-8b56-33977f4e7f03}; ! Layer 3

OS:Material,
  {29fc7a62-8721-4c9b-9455-ac6b63c5a0b5}, ! Handle
  Wood Siding,                            ! Name
  MediumSmooth,                           ! Roughness
  0.01,                                   ! Thickness {m}
  0.11,                                   ! Conductivity {W/m-K}
  544.62,                                 ! Density {kg/m3}
  1210,                                   ! Specific Heat {J/kg-K}
  0.9,                                    ! Thermal Absorptance
  0.78,                                   ! Solar Absorptance
  0.78;                                   ! Visible Absorptance

OS:Material,
  {2dd80ec3-1d0c-4d74-8b56-33977f4e7f03}, ! Handle
  1/2IN Gypsum,                           ! Name
  Smooth,                                 ! Roughness
  0.01271,                                ! Thickness {m}
  0.16,                                   ! Conductivity {W/m-K}
  784.9,                                  ! Density {kg/m3}
  830,                                    ! Specific Heat {J/kg-K}
  0.9,                                    ! Thermal Absorptance
  0.92,                                   ! Solar Absorptance
  0.92;                                   ! Visible Absorptance

