
OS:Version,
  {867fab0a-b2d1-4211-b9d2-17e606369b13}, ! Handle
  0.9.3;                                  ! Version Identifier

OS:Construction,
  {051b5a8c-f145-4f70-ae8d-cb8a14563d3a}, ! Handle
  189.1-2009 Res 8A Ext Wall Wood-Framed and Other, ! Name
  ,                                       ! Surface Rendering Name
  {8b441a97-02ac-4bcf-bc2c-a7d9e4006b33}, ! Layer 1
  {65b31ee3-0824-4771-a730-ea0182cc3228}, ! Layer 2
  {19c1762f-b6a2-4e17-a80d-1aae9965810c}; ! Layer 3

OS:Material,
  {8b441a97-02ac-4bcf-bc2c-a7d9e4006b33}, ! Handle
  Wood Siding,                            ! Name
  MediumSmooth,                           ! Roughness
  0.01,                                   ! Thickness {m}
  0.11,                                   ! Conductivity {W/m-K}
  544.62,                                 ! Density {kg/m3}
  1210,                                   ! Specific Heat {J/kg-K}
  0.9,                                    ! Thermal Absorptance
  0.78,                                   ! Solar Absorptance
  0.78;                                   ! Visible Absorptance

OS:Material,
  {65b31ee3-0824-4771-a730-ea0182cc3228}, ! Handle
  Wall Insulation [49],                   ! Name
  MediumRough,                            ! Roughness
  0.235164,                               ! Thickness {m}
  0.045,                                  ! Conductivity {W/m-K}
  265,                                    ! Density {kg/m3}
  836.8,                                  ! Specific Heat {J/kg-K}
  0.9,                                    ! Thermal Absorptance
  0.7,                                    ! Solar Absorptance
  0.7;                                    ! Visible Absorptance

OS:Material,
  {19c1762f-b6a2-4e17-a80d-1aae9965810c}, ! Handle
  1/2IN Gypsum,                           ! Name
  Smooth,                                 ! Roughness
  0.01271,                                ! Thickness {m}
  0.16,                                   ! Conductivity {W/m-K}
  784.9,                                  ! Density {kg/m3}
  830,                                    ! Specific Heat {J/kg-K}
  0.9,                                    ! Thermal Absorptance
  0.92,                                   ! Solar Absorptance
  0.92;                                   ! Visible Absorptance

OS:ComponentCost:LineItem,
  {c9e10b9e-08fd-4d7f-bb25-ac6c089eb329}, ! Handle
  189.1-2009 Res 8A Ext Wall Wood-Framed and Other, ! Name
  ,                                       ! Type
  Construction,                           ! Line Item Type
  189.1-2009 Res 8A Ext Wall Wood-Framed and Other, ! Item Name
  ,                                       ! Object End Use Key
  ,                                       ! Quantity {dimensionless}
  89.987,                                 ! Material Cost {$}
  CostPerArea;                            ! Material Cost Units

OS:ComponentData,
  {85e3c021-d6c4-481d-b66e-9aca1b65193d}, ! Handle
  Component Data 1,                       ! Name
  {0c76b1f0-ddc5-4124-92af-5819f4f77160}, ! UUID
  {0278bfd0-4dc7-4bdd-8b71-581fca121726}, ! Version UUID
  1363980988,                             ! Creation Timestamp
  1363980988,                             ! Version Timestamp
  {051b5a8c-f145-4f70-ae8d-cb8a14563d3a}, ! Name of Object 1
  {8b441a97-02ac-4bcf-bc2c-a7d9e4006b33}, ! Name of Object 2
  {65b31ee3-0824-4771-a730-ea0182cc3228}, ! Name of Object 3
  {19c1762f-b6a2-4e17-a80d-1aae9965810c}, ! Name of Object 4
  {c9e10b9e-08fd-4d7f-bb25-ac6c089eb329}; ! Name of Object 5

