
OS:Version,
  {18adb41b-399f-4368-90d8-5f5dd2a50a01}, ! Handle
  0.9.3;                                  ! Version Identifier

OS:Construction,
  {3b405f7d-0677-4ab6-bf9e-6cb056fcda80}, ! Handle
  90.1-1999 Nonres B17 Int Wall,          ! Name
  ,                                       ! Surface Rendering Name
  {27ad9c25-feeb-4356-b8f4-aff8d9b49f21}, ! Layer 1
  {27ad9c25-feeb-4356-b8f4-aff8d9b49f21}; ! Layer 2

OS:Material,
  {27ad9c25-feeb-4356-b8f4-aff8d9b49f21}, ! Handle
  GP01 1/2 GYPSUM,                        ! Name
  Smooth,                                 ! Roughness
  0.01271,                                ! Thickness {m}
  0.16,                                   ! Conductivity {W/m-K}
  800,                                    ! Density {kg/m3}
  1090,                                   ! Specific Heat {J/kg-K}
  0.9,                                    ! Thermal Absorptance
  0.7,                                    ! Solar Absorptance
  0.5;                                    ! Visible Absorptance

OS:ComponentCost:LineItem,
  {8c68be05-144a-471b-812b-6ad660beaf54}, ! Handle
  90.1-1999 Nonres B17 Int Wall,          ! Name
  ,                                       ! Type
  Construction,                           ! Line Item Type
  90.1-1999 Nonres B17 Int Wall,          ! Item Name
  ,                                       ! Object End Use Key
  ,                                       ! Quantity {dimensionless}
  0,                                      ! Material Cost {$}
  CostPerArea;                            ! Material Cost Units

OS:ComponentData,
  {996740a1-4955-472f-a379-a348ed65c24f}, ! Handle
  Component Data 1,                       ! Name
  {005f192f-4d73-46f4-982f-9864d80dd87f}, ! UUID
  {995d3cd9-50eb-4194-9e1a-f55a0e984214}, ! Version UUID
  1363981113,                             ! Creation Timestamp
  1363981113,                             ! Version Timestamp
  {3b405f7d-0677-4ab6-bf9e-6cb056fcda80}, ! Name of Object 1
  {27ad9c25-feeb-4356-b8f4-aff8d9b49f21}, ! Name of Object 2
  {8c68be05-144a-471b-812b-6ad660beaf54}; ! Name of Object 3

