
OS:Version,
  {1ae3a091-ffae-4e0c-9f4c-3312923fc6af}, ! Handle
  0.9.3;                                  ! Version Identifier

OS:Construction,
  {7c2c3fa7-628d-4ce5-b910-7b1cc041dafa}, ! Handle
  90.1-2007 Res 4B Ext Slab Unheated - 4in Slab without Carpet, ! Name
  ,                                       ! Surface Rendering Name
  {a0fa161f-203e-4698-bcf3-6eaabf07354f}; ! Layer 1

OS:Material,
  {a0fa161f-203e-4698-bcf3-6eaabf07354f}, ! Handle
  MAT-CC05 4 HW CONCRETE,                 ! Name
  Rough,                                  ! Roughness
  0.1016,                                 ! Thickness {m}
  1.311,                                  ! Conductivity {W/m-K}
  2240,                                   ! Density {kg/m3}
  836.8,                                  ! Specific Heat {J/kg-K}
  0.9,                                    ! Thermal Absorptance
  0.7,                                    ! Solar Absorptance
  0.7;                                    ! Visible Absorptance

OS:ComponentCost:LineItem,
  {1b2aee0a-193c-4501-9591-6eb8c524b40a}, ! Handle
  90.1-2007 Res 4B Ext Slab Unheated - 4in Slab without Carpet, ! Name
  ,                                       ! Type
  Construction,                           ! Line Item Type
  90.1-2007 Res 4B Ext Slab Unheated - 4in Slab without Carpet, ! Item Name
  ,                                       ! Object End Use Key
  ,                                       ! Quantity {dimensionless}
  45.52,                                  ! Material Cost {$}
  CostPerArea;                            ! Material Cost Units

