
OS:Version,
  {16208022-e9af-4c07-92c8-f17f55bec852}, ! Handle
  0.9.3;                                  ! Version Identifier

OS:Material:NoMass,
  {0adf57aa-ae6b-4065-be57-b85e760149b7}, ! Handle
  MAT-SHEATH,                             ! Name
  Rough,                                  ! Roughness
  0.36256,                                ! Thermal Resistance {m2-K/W}
  0.9,                                    ! Thermal Absorptance
  0.7,                                    ! Solar Absorptance
  0.7;                                    ! Visible Absorptance

OS:Material,
  {87d95b3d-ed7b-493f-b2e0-f8a0b33b31f8}, ! Handle
  Wall Insulation [1],                    ! Name
  MediumRough,                            ! Roughness
  0.0373223,                              ! Thickness {m}
  0.045,                                  ! Conductivity {W/m-K}
  265,                                    ! Density {kg/m3}
  836.8,                                  ! Specific Heat {J/kg-K}
  0.9,                                    ! Thermal Absorptance
  0.7,                                    ! Solar Absorptance
  0.7;                                    ! Visible Absorptance

OS:Material,
  {74fb104e-ffa6-4ac7-b7a3-00c370236989}, ! Handle
  1/2IN Gypsum,                           ! Name
  Smooth,                                 ! Roughness
  0.01271,                                ! Thickness {m}
  0.16,                                   ! Conductivity {W/m-K}
  784.9,                                  ! Density {kg/m3}
  830,                                    ! Specific Heat {J/kg-K}
  0.9,                                    ! Thermal Absorptance
  0.92,                                   ! Solar Absorptance
  0.92;                                   ! Visible Absorptance

OS:ComponentCost:LineItem,
  {a52dd713-6fc1-4bc1-b041-fe6602d5a063}, ! Handle
  90.1-1999 Nonres B13 Ext Wall Steel-Framed, ! Name
  ,                                       ! Type
  Construction,                           ! Line Item Type
  90.1-1999 Nonres B13 Ext Wall Steel-Framed, ! Item Name
  ,                                       ! Object End Use Key
  ,                                       ! Quantity {dimensionless}
  87.08,                                  ! Material Cost {$}
  CostPerArea;                            ! Material Cost Units

OS:Construction,
  {6a96dbd7-f814-4d45-a469-3c5599106f5b}, ! Handle
  90.1-1999 Nonres B13 Ext Wall Steel-Framed, ! Name
  ,                                       ! Surface Rendering Name
  {0adf57aa-ae6b-4065-be57-b85e760149b7}, ! Layer 1
  {87d95b3d-ed7b-493f-b2e0-f8a0b33b31f8}, ! Layer 2
  {74fb104e-ffa6-4ac7-b7a3-00c370236989}; ! Layer 3

