
OS:Version,
  {a0787b40-ff7a-4e94-b937-0f73110465b7}, ! Handle
  0.9.3;                                  ! Version Identifier

OS:Material,
  {db23cb98-ad92-4055-8525-10121673df83}, ! Handle
  Wood Siding,                            ! Name
  MediumSmooth,                           ! Roughness
  0.01,                                   ! Thickness {m}
  0.11,                                   ! Conductivity {W/m-K}
  544.62,                                 ! Density {kg/m3}
  1210,                                   ! Specific Heat {J/kg-K}
  0.9,                                    ! Thermal Absorptance
  0.78,                                   ! Solar Absorptance
  0.78;                                   ! Visible Absorptance

OS:ComponentCost:LineItem,
  {a31b7c0a-c941-4ea2-8b1e-f9485ff63aab}, ! Handle
  90.1-2001 Res B21 Ext Wall Wood-Framed and Other, ! Name
  ,                                       ! Type
  Construction,                           ! Line Item Type
  90.1-2001 Res B21 Ext Wall Wood-Framed and Other, ! Item Name
  ,                                       ! Object End Use Key
  ,                                       ! Quantity {dimensionless}
  80.638,                                 ! Material Cost {$}
  CostPerArea;                            ! Material Cost Units

OS:Construction,
  {e60cc9ce-0dd4-4fe5-815c-99f1a73950bc}, ! Handle
  90.1-2001 Res B21 Ext Wall Wood-Framed and Other, ! Name
  ,                                       ! Surface Rendering Name
  {db23cb98-ad92-4055-8525-10121673df83}, ! Layer 1
  {8b7bced7-fcd7-465a-a96b-63adc5240cf7}, ! Layer 2
  {a26fec0b-3f12-4fc6-bffe-6fbb0a798e51}; ! Layer 3

OS:Material,
  {8b7bced7-fcd7-465a-a96b-63adc5240cf7}, ! Handle
  Wall Insulation [13],                   ! Name
  MediumRough,                            ! Roughness
  0.140713,                               ! Thickness {m}
  0.045,                                  ! Conductivity {W/m-K}
  265,                                    ! Density {kg/m3}
  836.8,                                  ! Specific Heat {J/kg-K}
  0.9,                                    ! Thermal Absorptance
  0.7,                                    ! Solar Absorptance
  0.7;                                    ! Visible Absorptance

OS:Material,
  {a26fec0b-3f12-4fc6-bffe-6fbb0a798e51}, ! Handle
  1/2IN Gypsum,                           ! Name
  Smooth,                                 ! Roughness
  0.01271,                                ! Thickness {m}
  0.16,                                   ! Conductivity {W/m-K}
  784.9,                                  ! Density {kg/m3}
  830,                                    ! Specific Heat {J/kg-K}
  0.9,                                    ! Thermal Absorptance
  0.92,                                   ! Solar Absorptance
  0.92;                                   ! Visible Absorptance

