
OS:Version,
  {527577a1-9d7c-48ad-8981-cea7d7559154}, ! Handle
  0.9.3;                                  ! Version Identifier

OS:Construction,
  {eb7e130a-7d09-41d9-a241-7224a64a8545}, ! Handle
  189.1-2009 Nonres 2A Ext Slab Unheated - 4in Slab without Carpet, ! Name
  ,                                       ! Surface Rendering Name
  {3ae8ff9d-2d7e-4025-aa97-1fc3f61b4b11}; ! Layer 1

OS:Material,
  {3ae8ff9d-2d7e-4025-aa97-1fc3f61b4b11}, ! Handle
  MAT-CC05 4 HW CONCRETE,                 ! Name
  Rough,                                  ! Roughness
  0.1016,                                 ! Thickness {m}
  1.311,                                  ! Conductivity {W/m-K}
  2240,                                   ! Density {kg/m3}
  836.8,                                  ! Specific Heat {J/kg-K}
  0.9,                                    ! Thermal Absorptance
  0.7,                                    ! Solar Absorptance
  0.7;                                    ! Visible Absorptance

OS:ComponentCost:LineItem,
  {b055a71b-9da1-4bf4-a349-4ed86648cf8d}, ! Handle
  189.1-2009 Nonres 2A Ext Slab Unheated - 4in Slab without Carpet, ! Name
  ,                                       ! Type
  Construction,                           ! Line Item Type
  189.1-2009 Nonres 2A Ext Slab Unheated - 4in Slab without Carpet, ! Item Name
  ,                                       ! Object End Use Key
  ,                                       ! Quantity {dimensionless}
  45.52,                                  ! Material Cost {$}
  CostPerArea;                            ! Material Cost Units

OS:ComponentData,
  {67b62441-62e3-428e-8f6c-78a8b94eff27}, ! Handle
  Component Data 1,                       ! Name
  {7b56d130-b6ae-415c-af58-947e1b4d1fd0}, ! UUID
  {65aebb5d-7095-4911-9bb1-9645feefc966}, ! Version UUID
  1363979824,                             ! Creation Timestamp
  1363979824,                             ! Version Timestamp
  {eb7e130a-7d09-41d9-a241-7224a64a8545}, ! Name of Object 1
  {3ae8ff9d-2d7e-4025-aa97-1fc3f61b4b11}, ! Name of Object 2
  {b055a71b-9da1-4bf4-a349-4ed86648cf8d}; ! Name of Object 3

