
OS:Version,
  {41eb2a05-924f-437a-8b6c-77d639b606cc}, ! Handle
  0.9.3;                                  ! Version Identifier

OS:Material,
  {2638dc45-442c-49c4-9894-b3cdd27b8073}, ! Handle
  MAT-CC05 4 HW CONCRETE,                 ! Name
  Rough,                                  ! Roughness
  0.1016,                                 ! Thickness {m}
  1.311,                                  ! Conductivity {W/m-K}
  2240,                                   ! Density {kg/m3}
  836.8,                                  ! Specific Heat {J/kg-K}
  0.9,                                    ! Thermal Absorptance
  0.7,                                    ! Solar Absorptance
  0.7;                                    ! Visible Absorptance

OS:Construction,
  {e44e1d1e-614d-40ec-98f6-01664c0e7613}, ! Handle
  189.1-2009 Nonres 2A Ext Slab Unheated - 4in Slab without Carpet, ! Name
  ,                                       ! Surface Rendering Name
  {2638dc45-442c-49c4-9894-b3cdd27b8073}; ! Layer 1

OS:ComponentCost:LineItem,
  {58f758e3-cf90-4b21-8c6b-344a3c464d79}, ! Handle
  189.1-2009 Nonres 2A Ext Slab Unheated - 4in Slab without Carpet, ! Name
  ,                                       ! Type
  Construction,                           ! Line Item Type
  189.1-2009 Nonres 2A Ext Slab Unheated - 4in Slab without Carpet, ! Item Name
  ,                                       ! Object End Use Key
  ,                                       ! Quantity {dimensionless}
  45.52,                                  ! Material Cost {$}
  CostPerArea;                            ! Material Cost Units

