
OS:Version,
  {ece45f7e-7482-41f3-9b73-41770b971762}, ! Handle
  0.9.3;                                  ! Version Identifier

OS:Construction,
  {86a0127d-ff4d-45ef-b861-dff9f78d9fbc}, ! Handle
  90.1-2007 Nonres 6B Roof IEAD,          ! Name
  ,                                       ! Surface Rendering Name
  {38bbba0e-1804-4a7b-b4e4-36ab97bb1e77}, ! Layer 1
  {edf2d950-157b-4304-9c22-c8874030c238}, ! Layer 2
  {963165cd-72a4-447f-ab54-d66644b83064}; ! Layer 3

OS:Material,
  {38bbba0e-1804-4a7b-b4e4-36ab97bb1e77}, ! Handle
  Roof Membrane,                          ! Name
  VeryRough,                              ! Roughness
  0.0095,                                 ! Thickness {m}
  0.16,                                   ! Conductivity {W/m-K}
  1121.29,                                ! Density {kg/m3}
  1460,                                   ! Specific Heat {J/kg-K}
  0.9,                                    ! Thermal Absorptance
  0.7,                                    ! Solar Absorptance
  0.7;                                    ! Visible Absorptance

OS:Material,
  {edf2d950-157b-4304-9c22-c8874030c238}, ! Handle
  Roof Insulation [14],                   ! Name
  MediumRough,                            ! Roughness
  0.167335,                               ! Thickness {m}
  0.049,                                  ! Conductivity {W/m-K}
  265,                                    ! Density {kg/m3}
  836.8,                                  ! Specific Heat {J/kg-K}
  0.9,                                    ! Thermal Absorptance
  0.7,                                    ! Solar Absorptance
  0.7;                                    ! Visible Absorptance

OS:Material,
  {963165cd-72a4-447f-ab54-d66644b83064}, ! Handle
  Metal Decking,                          ! Name
  MediumSmooth,                           ! Roughness
  0.001524,                               ! Thickness {m}
  45.006,                                 ! Conductivity {W/m-K}
  7680,                                   ! Density {kg/m3}
  418.4,                                  ! Specific Heat {J/kg-K}
  0.9,                                    ! Thermal Absorptance
  0.7,                                    ! Solar Absorptance
  0.3;                                    ! Visible Absorptance

OS:ComponentCost:LineItem,
  {395e3fb3-bd99-4e03-8827-12e6c9140ac0}, ! Handle
  90.1-2007 Nonres 6B Roof IEAD,          ! Name
  ,                                       ! Type
  Construction,                           ! Line Item Type
  90.1-2007 Nonres 6B Roof IEAD,          ! Item Name
  ,                                       ! Object End Use Key
  ,                                       ! Quantity {dimensionless}
  52.87,                                  ! Material Cost {$}
  CostPerArea;                            ! Material Cost Units

OS:ComponentData,
  {987fdcd4-a48a-4b31-bb40-61760ef1eedf}, ! Handle
  Component Data 1,                       ! Name
  {c3834c5b-841b-4927-a210-80d2c4cca17b}, ! UUID
  {3db1cb5b-53c5-4797-8a8c-f9d25edf5396}, ! Version UUID
  1363981811,                             ! Creation Timestamp
  1363981811,                             ! Version Timestamp
  {86a0127d-ff4d-45ef-b861-dff9f78d9fbc}, ! Name of Object 1
  {38bbba0e-1804-4a7b-b4e4-36ab97bb1e77}, ! Name of Object 2
  {edf2d950-157b-4304-9c22-c8874030c238}, ! Name of Object 3
  {963165cd-72a4-447f-ab54-d66644b83064}, ! Name of Object 4
  {395e3fb3-bd99-4e03-8827-12e6c9140ac0}; ! Name of Object 5

