
OS:Version,
  {d0b70eda-303a-42af-98ec-8e12390077e8}, ! Handle
  0.9.3;                                  ! Version Identifier

OS:Material,
  {1f3de0ff-e3c8-4ca0-99ce-aa04bfc96fa7}, ! Handle
  Roof Insulation,                        ! Name
  MediumRough,                            ! Roughness
  0.124958,                               ! Thickness {m}
  0.049,                                  ! Conductivity {W/m-K}
  265,                                    ! Density {kg/m3}
  836.8,                                  ! Specific Heat {J/kg-K}
  0.9,                                    ! Thermal Absorptance
  0.7,                                    ! Solar Absorptance
  0.7;                                    ! Visible Absorptance

OS:Material,
  {efae5674-fc75-46da-b3ae-8fb9d2f198d8}, ! Handle
  Metal Decking,                          ! Name
  MediumSmooth,                           ! Roughness
  0.001524,                               ! Thickness {m}
  45.006,                                 ! Conductivity {W/m-K}
  7680,                                   ! Density {kg/m3}
  418.4,                                  ! Specific Heat {J/kg-K}
  0.9,                                    ! Thermal Absorptance
  0.7,                                    ! Solar Absorptance
  0.3;                                    ! Visible Absorptance

OS:ComponentCost:LineItem,
  {333ef08b-2b46-4a63-a4c6-e07137106399}, ! Handle
  AEDG-SmOffice 2A Roof IEAD,             ! Name
  ,                                       ! Type
  Construction,                           ! Line Item Type
  AEDG-SmOffice 2A Roof IEAD,             ! Item Name
  ,                                       ! Object End Use Key
  ,                                       ! Quantity {dimensionless}
  49.208,                                 ! Material Cost {$}
  CostPerArea;                            ! Material Cost Units

OS:Construction,
  {35c66d3d-c6c7-4ca8-bd45-a9edf058b30d}, ! Handle
  AEDG-SmOffice 2A Roof IEAD,             ! Name
  ,                                       ! Surface Rendering Name
  {efbef72c-0f49-47af-ac99-34e3a693334e}, ! Layer 1
  {1f3de0ff-e3c8-4ca0-99ce-aa04bfc96fa7}, ! Layer 2
  {efae5674-fc75-46da-b3ae-8fb9d2f198d8}; ! Layer 3

OS:Material,
  {efbef72c-0f49-47af-ac99-34e3a693334e}, ! Handle
  Roof Membrane,                          ! Name
  VeryRough,                              ! Roughness
  0.0095,                                 ! Thickness {m}
  0.16,                                   ! Conductivity {W/m-K}
  1121.29,                                ! Density {kg/m3}
  1460,                                   ! Specific Heat {J/kg-K}
  0.9,                                    ! Thermal Absorptance
  0.7,                                    ! Solar Absorptance
  0.7;                                    ! Visible Absorptance

