
OS:Version,
  {12a205c6-d9ba-4c2d-8f81-ecc4a9b59297}, ! Handle
  0.9.3;                                  ! Version Identifier

OS:Material,
  {392e4bd0-9461-445b-b7a1-32816d69e236}, ! Handle
  SpandrelGlass,                          ! Name
  Smooth,                                 ! Roughness
  0.007,                                  ! Thickness {m}
  45.31,                                  ! Conductivity {W/m-K}
  7833.02,                                ! Density {kg/m3}
  500,                                    ! Specific Heat {J/kg-K}
  0.9,                                    ! Thermal Absorptance
  0.23,                                   ! Solar Absorptance
  0.23;                                   ! Visible Absorptance

OS:Material,
  {73d90572-1558-4bdd-b63c-f8bcbf52e1ea}, ! Handle
  Wall Insulation [54],                   ! Name
  MediumRough,                            ! Roughness
  0.143495,                               ! Thickness {m}
  0.045,                                  ! Conductivity {W/m-K}
  265,                                    ! Density {kg/m3}
  836.8,                                  ! Specific Heat {J/kg-K}
  0.9,                                    ! Thermal Absorptance
  0.7,                                    ! Solar Absorptance
  0.7;                                    ! Visible Absorptance

OS:Material,
  {c76d02bc-cea4-4f6a-aeae-2067755f4903}, ! Handle
  1/2IN Gypsum,                           ! Name
  Smooth,                                 ! Roughness
  0.01271,                                ! Thickness {m}
  0.16,                                   ! Conductivity {W/m-K}
  784.9,                                  ! Density {kg/m3}
  830,                                    ! Specific Heat {J/kg-K}
  0.9,                                    ! Thermal Absorptance
  0.92,                                   ! Solar Absorptance
  0.92;                                   ! Visible Absorptance

OS:ComponentCost:LineItem,
  {044f3fc1-c415-44bd-b0cc-d453b6ca1a73}, ! Handle
  AEDG-SmOffice 7A Ext Wall Spandrel,     ! Name
  ,                                       ! Type
  Construction,                           ! Line Item Type
  AEDG-SmOffice 7A Ext Wall Spandrel,     ! Item Name
  ,                                       ! Object End Use Key
  ,                                       ! Quantity {dimensionless}
  81.98,                                  ! Material Cost {$}
  CostPerArea;                            ! Material Cost Units

OS:Construction,
  {1aff5dff-bb8d-439e-97fd-426233b0ad08}, ! Handle
  AEDG-SmOffice 7A Ext Wall Spandrel,     ! Name
  ,                                       ! Surface Rendering Name
  {392e4bd0-9461-445b-b7a1-32816d69e236}, ! Layer 1
  {73d90572-1558-4bdd-b63c-f8bcbf52e1ea}, ! Layer 2
  {c76d02bc-cea4-4f6a-aeae-2067755f4903}; ! Layer 3

