
OS:Version,
  {090b1b24-fe41-4827-afa6-987db56b033e}, ! Handle
  0.9.3;                                  ! Version Identifier

OS:Construction,
  {4f325633-2ede-4442-8379-55d3cd7794b9}, ! Handle
  90.1 Windows Window Fixed 2123 Mtl-Hpt-Std-ClrPye, ! Name
  ,                                       ! Surface Rendering Name
  {47bc2545-2ade-48a6-8dcf-ee63405f7ffa}; ! Layer 1

OS:WindowMaterial:Glazing,
  {47bc2545-2ade-48a6-8dcf-ee63405f7ffa}, ! Handle
  Theoretical Glass [372],                ! Name
  SpectralAverage,                        ! Optical Data Type
  ,                                       ! Window Glass Spectral Data Set Name
  0.003,                                  ! Thickness {m}
  0.383222,                               ! Solar Transmittance at Normal Incidence
  0.566778,                               ! Front Side Solar Reflectance at Normal Incidence
  0.566778,                               ! Back Side Solar Reflectance at Normal Incidence
  0.500108,                               ! Visible Transmittance at Normal Incidence
  0.449892,                               ! Front Side Visible Reflectance at Normal Incidence
  0.449892,                               ! Back Side Visible Reflectance at Normal Incidence
  0,                                      ! Infrared Transmittance at Normal Incidence
  0.9,                                    ! Front Side Infrared Hemispherical Emissivity
  0.9,                                    ! Back Side Infrared Hemispherical Emissivity
  0.0220475;                              ! Conductivity {W/m-K}

OS:ComponentCost:LineItem,
  {ac261c7d-9abb-4180-a08b-690c7cf6d123}, ! Handle
  90.1 Windows Window Fixed 2123 Mtl-Hpt-Std-ClrPye, ! Name
  ,                                       ! Type
  Construction,                           ! Line Item Type
  90.1 Windows Window Fixed 2123 Mtl-Hpt-Std-ClrPye, ! Item Name
  ,                                       ! Object End Use Key
  ,                                       ! Quantity {dimensionless}
  0,                                      ! Material Cost {$}
  CostPerArea;                            ! Material Cost Units

