
OS:Version,
  {5b4a3498-0f50-44d7-b9d5-03600b21cbff}, ! Handle
  0.9.3;                                  ! Version Identifier

OS:Construction,
  {f60e75ec-705d-4c34-abd8-8821c0546fb2}, ! Handle
  189.1-2009 Nonres 3A Ext Slab Unheated - 8in Slab with Carpet, ! Name
  ,                                       ! Surface Rendering Name
  {c6678a8c-5c51-4eec-9fd3-2866b11cf3f6}, ! Layer 1
  {4a33f2a3-a711-4d6f-aad4-e4016af831e8}; ! Layer 2

OS:Material,
  {c6678a8c-5c51-4eec-9fd3-2866b11cf3f6}, ! Handle
  MAT-CC05 8 HW CONCRETE,                 ! Name
  Rough,                                  ! Roughness
  0.20321,                                ! Thickness {m}
  1.311,                                  ! Conductivity {W/m-K}
  2240,                                   ! Density {kg/m3}
  836.8,                                  ! Specific Heat {J/kg-K}
  0.9,                                    ! Thermal Absorptance
  0.7,                                    ! Solar Absorptance
  0.7;                                    ! Visible Absorptance

OS:Material:NoMass,
  {4a33f2a3-a711-4d6f-aad4-e4016af831e8}, ! Handle
  CP02 CARPET PAD,                        ! Name
  VeryRough,                              ! Roughness
  0.21648,                                ! Thermal Resistance {m2-K/W}
  0.9,                                    ! Thermal Absorptance
  0.7,                                    ! Solar Absorptance
  0.8;                                    ! Visible Absorptance

OS:ComponentCost:LineItem,
  {9a6caeda-cc07-4137-a0a4-25fc9ccf27fa}, ! Handle
  189.1-2009 Nonres 3A Ext Slab Unheated - 8in Slab with Carpet, ! Name
  ,                                       ! Type
  Construction,                           ! Line Item Type
  189.1-2009 Nonres 3A Ext Slab Unheated - 8in Slab with Carpet, ! Item Name
  ,                                       ! Object End Use Key
  ,                                       ! Quantity {dimensionless}
  45.52,                                  ! Material Cost {$}
  CostPerArea;                            ! Material Cost Units

OS:ComponentData,
  {42a8c68e-a20f-4f9b-be86-5c03d08a81f2}, ! Handle
  Component Data 1,                       ! Name
  {db3d22fd-3d5a-4e5e-9bf2-9a72d4035f3b}, ! UUID
  {450010d2-96a2-4c6b-b61e-731d39b82da6}, ! Version UUID
  1363980936,                             ! Creation Timestamp
  1363980936,                             ! Version Timestamp
  {f60e75ec-705d-4c34-abd8-8821c0546fb2}, ! Name of Object 1
  {c6678a8c-5c51-4eec-9fd3-2866b11cf3f6}, ! Name of Object 2
  {4a33f2a3-a711-4d6f-aad4-e4016af831e8}, ! Name of Object 3
  {9a6caeda-cc07-4137-a0a4-25fc9ccf27fa}; ! Name of Object 4

