
OS:Version,
  {7b62eaa9-92f7-4665-8e42-17bcc2591559}, ! Handle
  0.9.3;                                  ! Version Identifier

OS:Construction,
  {1a05b6aa-d63c-49b9-9b11-d512ca4112e3}, ! Handle
  90.1-2007 Nonres 8A Window Metal framing all other, ! Name
  ,                                       ! Surface Rendering Name
  {704fb01a-eb60-4ca9-9f58-482029b6ad87}; ! Layer 1

OS:WindowMaterial:Glazing,
  {704fb01a-eb60-4ca9-9f58-482029b6ad87}, ! Handle
  Theoretical Glass [191],                ! Name
  SpectralAverage,                        ! Optical Data Type
  ,                                       ! Window Glass Spectral Data Set Name
  0.003,                                  ! Thickness {m}
  0.444683,                               ! Solar Transmittance at Normal Incidence
  0.505317,                               ! Front Side Solar Reflectance at Normal Incidence
  0.505317,                               ! Back Side Solar Reflectance at Normal Incidence
  0.450308,                               ! Visible Transmittance at Normal Incidence
  0.499692,                               ! Front Side Visible Reflectance at Normal Incidence
  0.499692,                               ! Back Side Visible Reflectance at Normal Incidence
  0,                                      ! Infrared Transmittance at Normal Incidence
  0.9,                                    ! Front Side Infrared Hemispherical Emissivity
  0.9,                                    ! Back Side Infrared Hemispherical Emissivity
  0.0129892;                              ! Conductivity {W/m-K}

OS:ComponentCost:LineItem,
  {af20da5d-04ce-44f2-bca8-c981bbd6cc5c}, ! Handle
  90.1-2007 Nonres 8A Window Metal framing all other, ! Name
  ,                                       ! Type
  Construction,                           ! Line Item Type
  90.1-2007 Nonres 8A Window Metal framing all other, ! Item Name
  ,                                       ! Object End Use Key
  ,                                       ! Quantity {dimensionless}
  508.362,                                ! Material Cost {$}
  CostPerArea;                            ! Material Cost Units

OS:ComponentData,
  {96cb3d0a-abf3-4416-972b-23565c33a370}, ! Handle
  Component Data 1,                       ! Name
  {e2a64f97-4d6a-4ee3-88e0-c53be208e6f6}, ! UUID
  {aebebc50-8a84-40b9-8ad5-8a5772098589}, ! Version UUID
  1363981829,                             ! Creation Timestamp
  1363981829,                             ! Version Timestamp
  {1a05b6aa-d63c-49b9-9b11-d512ca4112e3}, ! Name of Object 1
  {704fb01a-eb60-4ca9-9f58-482029b6ad87}, ! Name of Object 2
  {af20da5d-04ce-44f2-bca8-c981bbd6cc5c}; ! Name of Object 3

