
OS:Version,
  {de3284a2-aa83-4ac2-a053-adf9f31d41f5}, ! Handle
  0.9.3;                                  ! Version Identifier

OS:Material,
  {047f767b-2583-4de2-b49a-40869b17664d}, ! Handle
  Wall Insulation [43],                   ! Name
  MediumRough,                            ! Roughness
  0.15833,                                ! Thickness {m}
  0.045,                                  ! Conductivity {W/m-K}
  265,                                    ! Density {kg/m3}
  836.8,                                  ! Specific Heat {J/kg-K}
  0.9,                                    ! Thermal Absorptance
  0.7,                                    ! Solar Absorptance
  0.7;                                    ! Visible Absorptance

OS:Construction,
  {e9dd0d01-911c-4daa-9e30-09486a173139}, ! Handle
  189.1-2009 Nonres 8A Ext Wall Wood-Framed and Other, ! Name
  ,                                       ! Surface Rendering Name
  {2b1ac7e2-58ab-4c1b-ab1e-f2ab73adf5ce}, ! Layer 1
  {047f767b-2583-4de2-b49a-40869b17664d}, ! Layer 2
  {3fa96a93-e3b5-4a1f-b4a6-522aa4952cd7}; ! Layer 3

OS:Material,
  {2b1ac7e2-58ab-4c1b-ab1e-f2ab73adf5ce}, ! Handle
  Wood Siding,                            ! Name
  MediumSmooth,                           ! Roughness
  0.01,                                   ! Thickness {m}
  0.11,                                   ! Conductivity {W/m-K}
  544.62,                                 ! Density {kg/m3}
  1210,                                   ! Specific Heat {J/kg-K}
  0.9,                                    ! Thermal Absorptance
  0.78,                                   ! Solar Absorptance
  0.78;                                   ! Visible Absorptance

OS:Material,
  {3fa96a93-e3b5-4a1f-b4a6-522aa4952cd7}, ! Handle
  1/2IN Gypsum,                           ! Name
  Smooth,                                 ! Roughness
  0.01271,                                ! Thickness {m}
  0.16,                                   ! Conductivity {W/m-K}
  784.9,                                  ! Density {kg/m3}
  830,                                    ! Specific Heat {J/kg-K}
  0.9,                                    ! Thermal Absorptance
  0.92,                                   ! Solar Absorptance
  0.92;                                   ! Visible Absorptance

OS:ComponentCost:LineItem,
  {7b3551ad-84af-4016-8634-e9bcd2b440bb}, ! Handle
  189.1-2009 Nonres 8A Ext Wall Wood-Framed and Other, ! Name
  ,                                       ! Type
  Construction,                           ! Line Item Type
  189.1-2009 Nonres 8A Ext Wall Wood-Framed and Other, ! Item Name
  ,                                       ! Object End Use Key
  ,                                       ! Quantity {dimensionless}
  82.923,                                 ! Material Cost {$}
  CostPerArea;                            ! Material Cost Units

