
OS:Version,
  {662fde60-27e9-452e-8769-941897eb3f56}, ! Handle
  0.9.3;                                  ! Version Identifier

OS:Construction,
  {45922aa4-c5b7-412b-91e3-46ae2ef779b7}, ! Handle
  189.1-2009 Nonres 3A Skylight without Curb, ! Name
  ,                                       ! Surface Rendering Name
  {157cd2aa-9f1d-4296-b207-f9350d3fed40}; ! Layer 1

OS:WindowMaterial:Glazing,
  {157cd2aa-9f1d-4296-b207-f9350d3fed40}, ! Handle
  Theoretical Glass [203],                ! Name
  SpectralAverage,                        ! Optical Data Type
  ,                                       ! Window Glass Spectral Data Set Name
  0.003,                                  ! Thickness {m}
  0.171679,                               ! Solar Transmittance at Normal Incidence
  0.778321,                               ! Front Side Solar Reflectance at Normal Incidence
  0.778321,                               ! Back Side Solar Reflectance at Normal Incidence
  0.24137,                                ! Visible Transmittance at Normal Incidence
  0.70863,                                ! Front Side Visible Reflectance at Normal Incidence
  0.70863,                                ! Back Side Visible Reflectance at Normal Incidence
  0,                                      ! Infrared Transmittance at Normal Incidence
  0.9,                                    ! Front Side Infrared Hemispherical Emissivity
  0.9,                                    ! Back Side Infrared Hemispherical Emissivity
  0.0133144;                              ! Conductivity {W/m-K}

OS:ComponentCost:LineItem,
  {da383600-03e3-4fcd-be3b-4d72aebfc37e}, ! Handle
  189.1-2009 Nonres 3A Skylight without Curb, ! Name
  ,                                       ! Type
  Construction,                           ! Line Item Type
  189.1-2009 Nonres 3A Skylight without Curb, ! Item Name
  ,                                       ! Object End Use Key
  ,                                       ! Quantity {dimensionless}
  618.006,                                ! Material Cost {$}
  CostPerArea;                            ! Material Cost Units

