
OS:Version,
  {46b413eb-1537-41ca-a7a5-902d59258db7}, ! Handle
  0.9.3;                                  ! Version Identifier

OS:Construction,
  {297d2678-a23b-4c9d-80b6-b2f030213858}, ! Handle
  189.1-2009 Nonres 3A Skylight without Curb, ! Name
  ,                                       ! Surface Rendering Name
  {73a983bc-ed7b-4698-9823-feaa7b270910}; ! Layer 1

OS:WindowMaterial:Glazing,
  {73a983bc-ed7b-4698-9823-feaa7b270910}, ! Handle
  Theoretical Glass [203],                ! Name
  SpectralAverage,                        ! Optical Data Type
  ,                                       ! Window Glass Spectral Data Set Name
  0.003,                                  ! Thickness {m}
  0.171679,                               ! Solar Transmittance at Normal Incidence
  0.778321,                               ! Front Side Solar Reflectance at Normal Incidence
  0.778321,                               ! Back Side Solar Reflectance at Normal Incidence
  0.24137,                                ! Visible Transmittance at Normal Incidence
  0.70863,                                ! Front Side Visible Reflectance at Normal Incidence
  0.70863,                                ! Back Side Visible Reflectance at Normal Incidence
  0,                                      ! Infrared Transmittance at Normal Incidence
  0.9,                                    ! Front Side Infrared Hemispherical Emissivity
  0.9,                                    ! Back Side Infrared Hemispherical Emissivity
  0.0133144;                              ! Conductivity {W/m-K}

OS:ComponentCost:LineItem,
  {75576bd7-24c7-495f-8320-605c704d5ccd}, ! Handle
  189.1-2009 Nonres 3A Skylight without Curb, ! Name
  ,                                       ! Type
  Construction,                           ! Line Item Type
  189.1-2009 Nonres 3A Skylight without Curb, ! Item Name
  ,                                       ! Object End Use Key
  ,                                       ! Quantity {dimensionless}
  618.006,                                ! Material Cost {$}
  CostPerArea;                            ! Material Cost Units

OS:ComponentData,
  {433d056f-3fe6-420c-9fe4-0dbaf9bc2eff}, ! Handle
  Component Data 1,                       ! Name
  {9f63053d-7361-4df7-8840-e20bee6663a3}, ! UUID
  {bfec32d1-29f9-46b4-a671-0e76433208d0}, ! Version UUID
  1363980938,                             ! Creation Timestamp
  1363980938,                             ! Version Timestamp
  {297d2678-a23b-4c9d-80b6-b2f030213858}, ! Name of Object 1
  {73a983bc-ed7b-4698-9823-feaa7b270910}, ! Name of Object 2
  {75576bd7-24c7-495f-8320-605c704d5ccd}; ! Name of Object 3

