
OS:Version,
  {6e1d684d-327f-45fe-9dce-c1f091b20a3a}, ! Handle
  0.9.3;                                  ! Version Identifier

OS:Construction,
  {72465f83-73fd-4200-b6b1-7473a0c555c8}, ! Handle
  AEDG-SmOffice 8A Door Non-Swinging,     ! Name
  ,                                       ! Surface Rendering Name
  {8bd2f735-6a6f-45ed-93a4-6133a67715e6}; ! Layer 1

OS:Material:NoMass,
  {8bd2f735-6a6f-45ed-93a4-6133a67715e6}, ! Handle
  DoorMaterial,                           ! Name
  MediumRough,                            ! Roughness
  0.251589,                               ! Thermal Resistance {m2-K/W}
  0.9,                                    ! Thermal Absorptance
  0.7,                                    ! Solar Absorptance
  0.7;                                    ! Visible Absorptance

OS:ComponentCost:LineItem,
  {f4fd54b5-109c-4ffd-9f24-70a3e48a512e}, ! Handle
  AEDG-SmOffice 8A Door Non-Swinging,     ! Name
  ,                                       ! Type
  Construction,                           ! Line Item Type
  AEDG-SmOffice 8A Door Non-Swinging,     ! Item Name
  ,                                       ! Object End Use Key
  ,                                       ! Quantity {dimensionless}
  0,                                      ! Material Cost {$}
  CostPerArea;                            ! Material Cost Units

