
OS:Version,
  {ce882ed0-4972-413c-827b-29416bee63b5}, ! Handle
  0.9.3;                                  ! Version Identifier

OS:ComponentCost:LineItem,
  {1090e1f0-597d-4632-91a3-a756cec3043a}, ! Handle
  90.1-2007 Nonres 6B Attic Floor,        ! Name
  ,                                       ! Type
  Construction,                           ! Line Item Type
  90.1-2007 Nonres 6B Attic Floor,        ! Item Name
  ,                                       ! Object End Use Key
  ,                                       ! Quantity {dimensionless}
  35.009,                                 ! Material Cost {$}
  CostPerArea;                            ! Material Cost Units

OS:Material,
  {c71fdadb-7b14-4201-8952-bb46eec351d0}, ! Handle
  AtticFloor Insulation [1],              ! Name
  MediumRough,                            ! Roughness
  0.303719,                               ! Thickness {m}
  0.049,                                  ! Conductivity {W/m-K}
  265,                                    ! Density {kg/m3}
  836.8,                                  ! Specific Heat {J/kg-K}
  0.9,                                    ! Thermal Absorptance
  0.7,                                    ! Solar Absorptance
  0.7;                                    ! Visible Absorptance

OS:Construction,
  {c79eb50f-23f7-40a0-9d7f-41fa22c38f3b}, ! Handle
  90.1-2007 Nonres 6B Attic Floor,        ! Name
  ,                                       ! Surface Rendering Name
  {5821f2af-b3e8-487e-a356-99d1d078ad46}, ! Layer 1
  {c71fdadb-7b14-4201-8952-bb46eec351d0}, ! Layer 2
  {c66a364a-a17e-46cf-82ae-50a501e9a671}; ! Layer 3

OS:Material,
  {5821f2af-b3e8-487e-a356-99d1d078ad46}, ! Handle
  1/2IN Gypsum Top,                       ! Name
  Smooth,                                 ! Roughness
  0.01271,                                ! Thickness {m}
  0.16,                                   ! Conductivity {W/m-K}
  784.9,                                  ! Density {kg/m3}
  830,                                    ! Specific Heat {J/kg-K}
  0.9,                                    ! Thermal Absorptance
  0.92,                                   ! Solar Absorptance
  0.92;                                   ! Visible Absorptance

OS:Material,
  {c66a364a-a17e-46cf-82ae-50a501e9a671}, ! Handle
  1/2IN Gypsum Bottom,                    ! Name
  Smooth,                                 ! Roughness
  0.01271,                                ! Thickness {m}
  0.16,                                   ! Conductivity {W/m-K}
  784.9,                                  ! Density {kg/m3}
  830,                                    ! Specific Heat {J/kg-K}
  0.9,                                    ! Thermal Absorptance
  0.92,                                   ! Solar Absorptance
  0.92;                                   ! Visible Absorptance

