
OS:Version,
  {d7bf1a27-5813-4f53-af92-9cfac34d1c66}, ! Handle
  0.9.3;                                  ! Version Identifier

OS:Construction,
  {881f1903-31be-46a3-8108-3506a2181409}, ! Handle
  Title 24-2008 Nonres 4 Ext Slab Unheated - 8in Slab without Carpet, ! Name
  ,                                       ! Surface Rendering Name
  {5069e257-1575-4b8f-8cbb-6284aa5f3ad8}; ! Layer 1

OS:Material,
  {5069e257-1575-4b8f-8cbb-6284aa5f3ad8}, ! Handle
  MAT-CC05 8 HW CONCRETE,                 ! Name
  Rough,                                  ! Roughness
  0.20321,                                ! Thickness {m}
  1.311,                                  ! Conductivity {W/m-K}
  2240,                                   ! Density {kg/m3}
  836.8,                                  ! Specific Heat {J/kg-K}
  0.9,                                    ! Thermal Absorptance
  0.7,                                    ! Solar Absorptance
  0.7;                                    ! Visible Absorptance

OS:ComponentCost:LineItem,
  {54918e8a-6a35-481a-80fd-e163da060b00}, ! Handle
  Title 24-2008 Nonres 4 Ext Slab Unheated - 8in Slab without Carpet, ! Name
  ,                                       ! Type
  Construction,                           ! Line Item Type
  Title 24-2008 Nonres 4 Ext Slab Unheated - 8in Slab without Carpet, ! Item Name
  ,                                       ! Object End Use Key
  ,                                       ! Quantity {dimensionless}
  45.52,                                  ! Material Cost {$}
  CostPerArea;                            ! Material Cost Units

