
OS:Version,
  {b154a374-a700-4ed5-a0e3-a960e0bb95e0}, ! Handle
  0.9.3;                                  ! Version Identifier

OS:Construction,
  {685ee4e7-42b6-4e23-a7e4-99d93a86a038}, ! Handle
  90.1-1999 Nonres B20 Ext Wall Steel-Framed, ! Name
  ,                                       ! Surface Rendering Name
  {c506e0e9-d8e7-4e44-9baf-be223da8188a}, ! Layer 1
  {334cd28e-1cb4-4dcb-a60b-209a775a33bb}, ! Layer 2
  {4ad8fe38-d6e1-4fce-af01-a152f193eaa5}; ! Layer 3

OS:Material:NoMass,
  {c506e0e9-d8e7-4e44-9baf-be223da8188a}, ! Handle
  MAT-SHEATH,                             ! Name
  Rough,                                  ! Roughness
  0.36256,                                ! Thermal Resistance {m2-K/W}
  0.9,                                    ! Thermal Absorptance
  0.7,                                    ! Solar Absorptance
  0.7;                                    ! Visible Absorptance

OS:Material,
  {334cd28e-1cb4-4dcb-a60b-209a775a33bb}, ! Handle
  Wall Insulation [6],                    ! Name
  MediumRough,                            ! Roughness
  0.0678449,                              ! Thickness {m}
  0.045,                                  ! Conductivity {W/m-K}
  265,                                    ! Density {kg/m3}
  836.8,                                  ! Specific Heat {J/kg-K}
  0.9,                                    ! Thermal Absorptance
  0.7,                                    ! Solar Absorptance
  0.7;                                    ! Visible Absorptance

OS:Material,
  {4ad8fe38-d6e1-4fce-af01-a152f193eaa5}, ! Handle
  1/2IN Gypsum,                           ! Name
  Smooth,                                 ! Roughness
  0.01271,                                ! Thickness {m}
  0.16,                                   ! Conductivity {W/m-K}
  784.9,                                  ! Density {kg/m3}
  830,                                    ! Specific Heat {J/kg-K}
  0.9,                                    ! Thermal Absorptance
  0.92,                                   ! Solar Absorptance
  0.92;                                   ! Visible Absorptance

OS:ComponentCost:LineItem,
  {89390a3d-0b48-4c52-8fca-6ba841527c3e}, ! Handle
  90.1-1999 Nonres B20 Ext Wall Steel-Framed, ! Name
  ,                                       ! Type
  Construction,                           ! Line Item Type
  90.1-1999 Nonres B20 Ext Wall Steel-Framed, ! Item Name
  ,                                       ! Object End Use Key
  ,                                       ! Quantity {dimensionless}
  91.749,                                 ! Material Cost {$}
  CostPerArea;                            ! Material Cost Units

OS:ComponentData,
  {5753bdd4-a01f-43a8-bc88-f5b07f6e8ecb}, ! Handle
  Component Data 1,                       ! Name
  {8831b4af-ec9f-46ba-b37b-51433022ff44}, ! UUID
  {13392996-893b-4769-bd5d-c73e27a0fe08}, ! Version UUID
  1363981128,                             ! Creation Timestamp
  1363981128,                             ! Version Timestamp
  {685ee4e7-42b6-4e23-a7e4-99d93a86a038}, ! Name of Object 1
  {c506e0e9-d8e7-4e44-9baf-be223da8188a}, ! Name of Object 2
  {334cd28e-1cb4-4dcb-a60b-209a775a33bb}, ! Name of Object 3
  {4ad8fe38-d6e1-4fce-af01-a152f193eaa5}, ! Name of Object 4
  {89390a3d-0b48-4c52-8fca-6ba841527c3e}; ! Name of Object 5

