
OS:Version,
  {56b9b49b-0c64-4a4e-913f-1c633c84925e}, ! Handle
  0.9.3;                                  ! Version Identifier

OS:Material,
  {3daf1183-e06b-4191-b8f6-50cc6dbc0418}, ! Handle
  Wall Insulation [6],                    ! Name
  MediumRough,                            ! Roughness
  0.0678449,                              ! Thickness {m}
  0.045,                                  ! Conductivity {W/m-K}
  265,                                    ! Density {kg/m3}
  836.8,                                  ! Specific Heat {J/kg-K}
  0.9,                                    ! Thermal Absorptance
  0.7,                                    ! Solar Absorptance
  0.7;                                    ! Visible Absorptance

OS:Material:NoMass,
  {0832eace-ca6d-4003-8098-03dbdcd3d63f}, ! Handle
  MAT-SHEATH,                             ! Name
  Rough,                                  ! Roughness
  0.36256,                                ! Thermal Resistance {m2-K/W}
  0.9,                                    ! Thermal Absorptance
  0.7,                                    ! Solar Absorptance
  0.7;                                    ! Visible Absorptance

OS:Construction,
  {61c914e7-2dca-4491-8214-c4014d32833f}, ! Handle
  90.1-1999 Nonres B20 Ext Wall Steel-Framed, ! Name
  ,                                       ! Surface Rendering Name
  {0832eace-ca6d-4003-8098-03dbdcd3d63f}, ! Layer 1
  {3daf1183-e06b-4191-b8f6-50cc6dbc0418}, ! Layer 2
  {1ddf731d-60de-4801-953d-7a2e93a7c19c}; ! Layer 3

OS:Material,
  {1ddf731d-60de-4801-953d-7a2e93a7c19c}, ! Handle
  1/2IN Gypsum,                           ! Name
  Smooth,                                 ! Roughness
  0.01271,                                ! Thickness {m}
  0.16,                                   ! Conductivity {W/m-K}
  784.9,                                  ! Density {kg/m3}
  830,                                    ! Specific Heat {J/kg-K}
  0.9,                                    ! Thermal Absorptance
  0.92,                                   ! Solar Absorptance
  0.92;                                   ! Visible Absorptance

OS:ComponentCost:LineItem,
  {5bc70825-834b-418d-8221-22973298c3e4}, ! Handle
  90.1-1999 Nonres B20 Ext Wall Steel-Framed, ! Name
  ,                                       ! Type
  Construction,                           ! Line Item Type
  90.1-1999 Nonres B20 Ext Wall Steel-Framed, ! Item Name
  ,                                       ! Object End Use Key
  ,                                       ! Quantity {dimensionless}
  91.749,                                 ! Material Cost {$}
  CostPerArea;                            ! Material Cost Units

