
OS:Version,
  {37235434-b5ac-4a3c-a874-a34555af5a6f}, ! Handle
  0.9.3;                                  ! Version Identifier

OS:Construction,
  {caadd037-583f-4d32-b47c-dfe586585f19}, ! Handle
  90.1-1999 Nonres B19 Ext Slab Unheated - 4in Slab without Carpet, ! Name
  ,                                       ! Surface Rendering Name
  {1f703067-fe1f-45ad-8185-c0834090145c}; ! Layer 1

OS:Material,
  {1f703067-fe1f-45ad-8185-c0834090145c}, ! Handle
  MAT-CC05 4 HW CONCRETE,                 ! Name
  Rough,                                  ! Roughness
  0.1016,                                 ! Thickness {m}
  1.311,                                  ! Conductivity {W/m-K}
  2240,                                   ! Density {kg/m3}
  836.8,                                  ! Specific Heat {J/kg-K}
  0.9,                                    ! Thermal Absorptance
  0.7,                                    ! Solar Absorptance
  0.7;                                    ! Visible Absorptance

OS:ComponentCost:LineItem,
  {2348770a-3e76-4ae2-be30-3d884c0f4d79}, ! Handle
  90.1-1999 Nonres B19 Ext Slab Unheated - 4in Slab without Carpet, ! Name
  ,                                       ! Type
  Construction,                           ! Line Item Type
  90.1-1999 Nonres B19 Ext Slab Unheated - 4in Slab without Carpet, ! Item Name
  ,                                       ! Object End Use Key
  ,                                       ! Quantity {dimensionless}
  45.52,                                  ! Material Cost {$}
  CostPerArea;                            ! Material Cost Units

