
OS:Version,
  {b0eeef25-5799-4de8-a9d3-48256d5b573f}, !- Handle
  1.0.6;                                  !- Version Identifier

OS:WindowMaterial:Glazing,
  {a8373e8d-8f67-4840-908a-ad4bc0e8a8bc}, !- Handle
  189.1-2011 NONRES 5B METAL FRAMING ENTRANCE DOOR THEORETICAL GLAZING, !- Name
  SpectralAverage,                        !- Optical Data Type
  ,                                       !- Window Glass Spectral Data Set Name
  0.002,                                  !- Thickness {m}
  0.22323,                                !- Solar Transmittance at Normal Incidence
  0.41337,                                !- Front Side Solar Reflectance at Normal Incidence
  0.41337,                                !- Back Side Solar Reflectance at Normal Incidence
  0.22323,                                !- Visible Transmittance at Normal Incidence
  0.41337,                                !- Front Side Visible Reflectance at Normal Incidence
  0.41337,                                !- Back Side Visible Reflectance at Normal Incidence
  0,                                      !- Infrared Transmittance at Normal Incidence
  0.84,                                   !- Front Side Infrared Hemispherical Emissivity
  0.84,                                   !- Back Side Infrared Hemispherical Emissivity
  0.02398,                                !- Conductivity {W/m-K}
  1,                                      !- Dirt Correction Factor for Solar and Visible Transmittance
  No;                                     !- Solar Diffusing

OS:Construction,
  {b457344f-29f9-46b0-96ce-5c0c6c0f9e31}, !- Handle
  189.1-2011 NONRES 5B METAL FRAMING ENTRANCE DOOR, !- Name
  ,                                       !- Surface Rendering Name
  {a8373e8d-8f67-4840-908a-ad4bc0e8a8bc}; !- Layer 1

