
OS:Version,
  {429537f2-3eb1-487c-b455-e9fa8b7ab477}, ! Handle
  0.9.3;                                  ! Version Identifier

OS:Material,
  {ce3d97de-03ff-41c4-8673-ac026fbc0cb5}, ! Handle
  Metal Siding,                           ! Name
  Smooth,                                 ! Roughness
  0.0015,                                 ! Thickness {m}
  44.96,                                  ! Conductivity {W/m-K}
  7688.86,                                ! Density {kg/m3}
  410,                                    ! Specific Heat {J/kg-K}
  0.9,                                    ! Thermal Absorptance
  0.2,                                    ! Solar Absorptance
  0.2;                                    ! Visible Absorptance

OS:Material,
  {6dbafee1-dd65-4755-909d-ffc5e7786158}, ! Handle
  Wall Insulation,                        ! Name
  MediumRough,                            ! Roughness
  0.0598725,                              ! Thickness {m}
  0.045,                                  ! Conductivity {W/m-K}
  265,                                    ! Density {kg/m3}
  836.8,                                  ! Specific Heat {J/kg-K}
  0.9,                                    ! Thermal Absorptance
  0.7,                                    ! Solar Absorptance
  0.7;                                    ! Visible Absorptance

OS:ComponentCost:LineItem,
  {cad79c5f-7e7a-44d6-8618-4562d2e8c882}, ! Handle
  90.1-1999 Res B5 Ext Wall Metal Building, ! Name
  ,                                       ! Type
  Construction,                           ! Line Item Type
  90.1-1999 Res B5 Ext Wall Metal Building, ! Item Name
  ,                                       ! Object End Use Key
  ,                                       ! Quantity {dimensionless}
  98.78,                                  ! Material Cost {$}
  CostPerArea;                            ! Material Cost Units

OS:Material,
  {e94bd246-6c93-4393-96e2-438d035afb7d}, ! Handle
  1/2IN Gypsum,                           ! Name
  Smooth,                                 ! Roughness
  0.01271,                                ! Thickness {m}
  0.16,                                   ! Conductivity {W/m-K}
  784.9,                                  ! Density {kg/m3}
  830,                                    ! Specific Heat {J/kg-K}
  0.9,                                    ! Thermal Absorptance
  0.92,                                   ! Solar Absorptance
  0.92;                                   ! Visible Absorptance

OS:Construction,
  {a8cde816-52fe-495c-add9-931e993a0d19}, ! Handle
  90.1-1999 Res B5 Ext Wall Metal Building, ! Name
  ,                                       ! Surface Rendering Name
  {ce3d97de-03ff-41c4-8673-ac026fbc0cb5}, ! Layer 1
  {6dbafee1-dd65-4755-909d-ffc5e7786158}, ! Layer 2
  {e94bd246-6c93-4393-96e2-438d035afb7d}; ! Layer 3

