
OS:Version,
  {febbfa89-ad54-4644-ac4b-c1f461f540f4}, !- Handle
  1.1.0;                                  !- Version Identifier

OS:Construction,
  {83499a36-97e7-4fc2-a9c8-6c0248caf4d2}, !- Handle
  Dbl Green 6mm/6mm Air,                  !- Name
  ,                                       !- Surface Rendering Name
  {ca864a77-e39f-40b4-bab6-3c0d5e1e00af}, !- Layer 1
  {06fa64d9-e530-4ca2-808b-9ccde04eedb0}, !- Layer 2
  {8085980c-e8e6-47a0-9612-9570e864ed98}; !- Layer 3

OS:WindowMaterial:Glazing,
  {ca864a77-e39f-40b4-bab6-3c0d5e1e00af}, !- Handle
  GREEN 6MM,                              !- Name
  SpectralAverage,                        !- Optical Data Type
  ,                                       !- Window Glass Spectral Data Set Name
  0.006,                                  !- Thickness {m}
  0.487,                                  !- Solar Transmittance at Normal Incidence
  0.056,                                  !- Front Side Solar Reflectance at Normal Incidence
  0.056,                                  !- Back Side Solar Reflectance at Normal Incidence
  0.749,                                  !- Visible Transmittance at Normal Incidence
  0.07,                                   !- Front Side Visible Reflectance at Normal Incidence
  0.07,                                   !- Back Side Visible Reflectance at Normal Incidence
  0,                                      !- Infrared Transmittance at Normal Incidence
  0.84,                                   !- Front Side Infrared Hemispherical Emissivity
  0.84,                                   !- Back Side Infrared Hemispherical Emissivity
  0.9;                                    !- Conductivity {W/m-K}

OS:WindowMaterial:Gas,
  {06fa64d9-e530-4ca2-808b-9ccde04eedb0}, !- Handle
  AIR 6MM,                                !- Name
  Air,                                    !- Gas Type
  0.0063;                                 !- Thickness {m}

OS:WindowMaterial:Glazing,
  {8085980c-e8e6-47a0-9612-9570e864ed98}, !- Handle
  CLEAR 6MM,                              !- Name
  SpectralAverage,                        !- Optical Data Type
  ,                                       !- Window Glass Spectral Data Set Name
  0.006,                                  !- Thickness {m}
  0.775,                                  !- Solar Transmittance at Normal Incidence
  0.071,                                  !- Front Side Solar Reflectance at Normal Incidence
  0.071,                                  !- Back Side Solar Reflectance at Normal Incidence
  0.881,                                  !- Visible Transmittance at Normal Incidence
  0.08,                                   !- Front Side Visible Reflectance at Normal Incidence
  0.08,                                   !- Back Side Visible Reflectance at Normal Incidence
  0,                                      !- Infrared Transmittance at Normal Incidence
  0.84,                                   !- Front Side Infrared Hemispherical Emissivity
  0.84,                                   !- Back Side Infrared Hemispherical Emissivity
  0.9;                                    !- Conductivity {W/m-K}

