
OS:Version,
  {0dbdf946-139b-428a-be55-b15b9b8d2883}, !- Handle
  1.1.0;                                  !- Version Identifier

OS:Construction,
  {cfa12f3c-345b-4950-9b12-b472da3e2e4b}, !- Handle
  Trp LoE Film (55) Bronze 6mm/6mm Air,   !- Name
  ,                                       !- Surface Rendering Name
  {b3fca4ac-b536-4ecf-aa06-4bcef79d6e8f}, !- Layer 1
  {e692e754-4cc0-4540-931d-0b95a52a806c}, !- Layer 2
  {a3d63b50-5989-420d-b4b4-369254e521fe}, !- Layer 3
  {e692e754-4cc0-4540-931d-0b95a52a806c}, !- Layer 4
  {e7abd310-0e72-4847-8e36-7b6cfc0364b7}; !- Layer 5

OS:WindowMaterial:Glazing,
  {b3fca4ac-b536-4ecf-aa06-4bcef79d6e8f}, !- Handle
  BRONZE 6MM,                             !- Name
  SpectralAverage,                        !- Optical Data Type
  ,                                       !- Window Glass Spectral Data Set Name
  0.006,                                  !- Thickness {m}
  0.482,                                  !- Solar Transmittance at Normal Incidence
  0.054,                                  !- Front Side Solar Reflectance at Normal Incidence
  0.054,                                  !- Back Side Solar Reflectance at Normal Incidence
  0.534,                                  !- Visible Transmittance at Normal Incidence
  0.057,                                  !- Front Side Visible Reflectance at Normal Incidence
  0.057,                                  !- Back Side Visible Reflectance at Normal Incidence
  0,                                      !- Infrared Transmittance at Normal Incidence
  0.84,                                   !- Front Side Infrared Hemispherical Emissivity
  0.84,                                   !- Back Side Infrared Hemispherical Emissivity
  0.9;                                    !- Conductivity {W/m-K}

OS:WindowMaterial:Gas,
  {e692e754-4cc0-4540-931d-0b95a52a806c}, !- Handle
  AIR 6MM,                                !- Name
  Air,                                    !- Gas Type
  0.0063;                                 !- Thickness {m}

OS:WindowMaterial:Glazing,
  {a3d63b50-5989-420d-b4b4-369254e521fe}, !- Handle
  COATED POLY-55,                         !- Name
  SpectralAverage,                        !- Optical Data Type
  ,                                       !- Window Glass Spectral Data Set Name
  0.00051,                                !- Thickness {m}
  0.32,                                   !- Solar Transmittance at Normal Incidence
  0.582,                                  !- Front Side Solar Reflectance at Normal Incidence
  0.593,                                  !- Back Side Solar Reflectance at Normal Incidence
  0.551,                                  !- Visible Transmittance at Normal Incidence
  0.336,                                  !- Front Side Visible Reflectance at Normal Incidence
  0.375,                                  !- Back Side Visible Reflectance at Normal Incidence
  0,                                      !- Infrared Transmittance at Normal Incidence
  0.046,                                  !- Front Side Infrared Hemispherical Emissivity
  0.72,                                   !- Back Side Infrared Hemispherical Emissivity
  0.14;                                   !- Conductivity {W/m-K}

OS:WindowMaterial:Glazing,
  {e7abd310-0e72-4847-8e36-7b6cfc0364b7}, !- Handle
  CLEAR 6MM,                              !- Name
  SpectralAverage,                        !- Optical Data Type
  ,                                       !- Window Glass Spectral Data Set Name
  0.006,                                  !- Thickness {m}
  0.775,                                  !- Solar Transmittance at Normal Incidence
  0.071,                                  !- Front Side Solar Reflectance at Normal Incidence
  0.071,                                  !- Back Side Solar Reflectance at Normal Incidence
  0.881,                                  !- Visible Transmittance at Normal Incidence
  0.08,                                   !- Front Side Visible Reflectance at Normal Incidence
  0.08,                                   !- Back Side Visible Reflectance at Normal Incidence
  0,                                      !- Infrared Transmittance at Normal Incidence
  0.84,                                   !- Front Side Infrared Hemispherical Emissivity
  0.84,                                   !- Back Side Infrared Hemispherical Emissivity
  0.9;                                    !- Conductivity {W/m-K}

