
OS:Version,
  {a3d2fbfd-ef2c-42d5-a90c-d59d1d8ddacb}, ! Handle
  0.9.3;                                  ! Version Identifier

OS:Material,
  {6cd4d306-d9f1-4e6e-841f-8e6a13da3274}, ! Handle
  METAL Door Medium 18Ga,                 ! Name
  Smooth,                                 ! Roughness
  0.0013106,                              ! Thickness {m}
  45.3149,                                ! Conductivity {W/m-K}
  7833.03,                                ! Density {kg/m3}
  502.08,                                 ! Specific Heat {J/kg-K}
  0.8,                                    ! Thermal Absorptance
  0.5,                                    ! Solar Absorptance
  0.5;                                    ! Visible Absorptance

OS:Material:NoMass,
  {399e62d8-2e7c-47a4-a652-2e897fa3f26e}, ! Handle
  AIR [16],                               ! Name
  Smooth,                                 ! Roughness
  0.121454,                               ! Thermal Resistance {m2-K/W}
  0.8,                                    ! Thermal Absorptance
  0.5,                                    ! Solar Absorptance
  0.5;                                    ! Visible Absorptance

OS:Material,
  {fa370d7f-2727-47ab-8911-319637885d3d}, ! Handle
  METAL Door Medium 18Ga_2,               ! Name
  Smooth,                                 ! Roughness
  0.0013106,                              ! Thickness {m}
  45.3149,                                ! Conductivity {W/m-K}
  7833.03,                                ! Density {kg/m3}
  502.08,                                 ! Specific Heat {J/kg-K}
  0.8,                                    ! Thermal Absorptance
  0.5,                                    ! Solar Absorptance
  0.5;                                    ! Visible Absorptance

OS:ComponentCost:LineItem,
  {e6264ca2-2bb9-45ff-991b-89a46916998e}, ! Handle
  Title 24-2008 Nonres 3 Door Non-Swinging, ! Name
  ,                                       ! Type
  Construction,                           ! Line Item Type
  Title 24-2008 Nonres 3 Door Non-Swinging, ! Item Name
  ,                                       ! Object End Use Key
  ,                                       ! Quantity {dimensionless}
  0,                                      ! Material Cost {$}
  CostPerArea;                            ! Material Cost Units

OS:Construction,
  {65141b8d-3eaa-423b-b4d3-4a71d9585a3d}, ! Handle
  Title 24-2008 Nonres 3 Door Non-Swinging, ! Name
  ,                                       ! Surface Rendering Name
  {6cd4d306-d9f1-4e6e-841f-8e6a13da3274}, ! Layer 1
  {399e62d8-2e7c-47a4-a652-2e897fa3f26e}, ! Layer 2
  {fa370d7f-2727-47ab-8911-319637885d3d}; ! Layer 3

