
OS:Version,
  {a7a3c1ff-c23e-4abc-a141-f503149c1853}, ! Handle
  0.9.3;                                  ! Version Identifier

OS:Construction,
  {a73d5320-c081-44fe-98e9-0d57eb803912}, ! Handle
  Title 24-2008 Nonres 3 Door Non-Swinging, ! Name
  ,                                       ! Surface Rendering Name
  {2722ffe2-7fb1-418c-9345-4b1ad588e94a}, ! Layer 1
  {d99d3a0c-0b43-4d82-bdb3-94f87064b4af}, ! Layer 2
  {404c8737-e563-4f28-9d00-306b8cc054d5}; ! Layer 3

OS:Material,
  {2722ffe2-7fb1-418c-9345-4b1ad588e94a}, ! Handle
  METAL Door Medium 18Ga,                 ! Name
  Smooth,                                 ! Roughness
  0.0013106,                              ! Thickness {m}
  45.3149,                                ! Conductivity {W/m-K}
  7833.03,                                ! Density {kg/m3}
  502.08,                                 ! Specific Heat {J/kg-K}
  0.8,                                    ! Thermal Absorptance
  0.5,                                    ! Solar Absorptance
  0.5;                                    ! Visible Absorptance

OS:Material:NoMass,
  {d99d3a0c-0b43-4d82-bdb3-94f87064b4af}, ! Handle
  AIR [16],                               ! Name
  Smooth,                                 ! Roughness
  0.121454,                               ! Thermal Resistance {m2-K/W}
  0.8,                                    ! Thermal Absorptance
  0.5,                                    ! Solar Absorptance
  0.5;                                    ! Visible Absorptance

OS:Material,
  {404c8737-e563-4f28-9d00-306b8cc054d5}, ! Handle
  METAL Door Medium 18Ga_2,               ! Name
  Smooth,                                 ! Roughness
  0.0013106,                              ! Thickness {m}
  45.3149,                                ! Conductivity {W/m-K}
  7833.03,                                ! Density {kg/m3}
  502.08,                                 ! Specific Heat {J/kg-K}
  0.8,                                    ! Thermal Absorptance
  0.5,                                    ! Solar Absorptance
  0.5;                                    ! Visible Absorptance

OS:ComponentCost:LineItem,
  {1c7cb393-0f14-4342-a054-46d9b420064a}, ! Handle
  Title 24-2008 Nonres 3 Door Non-Swinging, ! Name
  ,                                       ! Type
  Construction,                           ! Line Item Type
  Title 24-2008 Nonres 3 Door Non-Swinging, ! Item Name
  ,                                       ! Object End Use Key
  ,                                       ! Quantity {dimensionless}
  0,                                      ! Material Cost {$}
  CostPerArea;                            ! Material Cost Units

OS:ComponentData,
  {16d7165f-6e50-424a-b888-6fb1a30ef7a0}, ! Handle
  Component Data 1,                       ! Name
  {d82dd272-9e31-4b3e-a9e2-1f1b4ee5840f}, ! UUID
  {1a1e1d43-6acc-407f-a2ec-d370f355ed4a}, ! Version UUID
  1363982005,                             ! Creation Timestamp
  1363982005,                             ! Version Timestamp
  {a73d5320-c081-44fe-98e9-0d57eb803912}, ! Name of Object 1
  {2722ffe2-7fb1-418c-9345-4b1ad588e94a}, ! Name of Object 2
  {d99d3a0c-0b43-4d82-bdb3-94f87064b4af}, ! Name of Object 3
  {404c8737-e563-4f28-9d00-306b8cc054d5}, ! Name of Object 4
  {1c7cb393-0f14-4342-a054-46d9b420064a}; ! Name of Object 5

