
OS:Version,
  {aa3dab02-8e37-4d08-a1f0-e1f2ec4172f5}, ! Handle
  0.9.3;                                  ! Version Identifier

OS:Material,
  {95fbf0e3-bd86-42cd-b945-3f39a4f2eac5}, ! Handle
  1/2IN Gypsum,                           ! Name
  Smooth,                                 ! Roughness
  0.01271,                                ! Thickness {m}
  0.16,                                   ! Conductivity {W/m-K}
  784.9,                                  ! Density {kg/m3}
  830,                                    ! Specific Heat {J/kg-K}
  0.9,                                    ! Thermal Absorptance
  0.92,                                   ! Solar Absorptance
  0.92;                                   ! Visible Absorptance

OS:Material,
  {2b23a118-b1c1-4c5b-864d-85e3b7302f86}, ! Handle
  Wall Insulation [13],                   ! Name
  MediumRough,                            ! Roughness
  0.140713,                               ! Thickness {m}
  0.045,                                  ! Conductivity {W/m-K}
  265,                                    ! Density {kg/m3}
  836.8,                                  ! Specific Heat {J/kg-K}
  0.9,                                    ! Thermal Absorptance
  0.7,                                    ! Solar Absorptance
  0.7;                                    ! Visible Absorptance

OS:Construction,
  {7b8371a6-a9ec-4e3c-8b38-73d5538bbab2}, ! Handle
  90.1-1999 Res B22 Ext Wall Wood-Framed and Other, ! Name
  ,                                       ! Surface Rendering Name
  {a39cf8e1-1132-41b1-ab24-584e7cd5ab87}, ! Layer 1
  {2b23a118-b1c1-4c5b-864d-85e3b7302f86}, ! Layer 2
  {95fbf0e3-bd86-42cd-b945-3f39a4f2eac5}; ! Layer 3

OS:Material,
  {a39cf8e1-1132-41b1-ab24-584e7cd5ab87}, ! Handle
  Wood Siding,                            ! Name
  MediumSmooth,                           ! Roughness
  0.01,                                   ! Thickness {m}
  0.11,                                   ! Conductivity {W/m-K}
  544.62,                                 ! Density {kg/m3}
  1210,                                   ! Specific Heat {J/kg-K}
  0.9,                                    ! Thermal Absorptance
  0.78,                                   ! Solar Absorptance
  0.78;                                   ! Visible Absorptance

OS:ComponentCost:LineItem,
  {abfc7684-d702-4798-abc0-99deee5a9388}, ! Handle
  90.1-1999 Res B22 Ext Wall Wood-Framed and Other, ! Name
  ,                                       ! Type
  Construction,                           ! Line Item Type
  90.1-1999 Res B22 Ext Wall Wood-Framed and Other, ! Item Name
  ,                                       ! Object End Use Key
  ,                                       ! Quantity {dimensionless}
  80.638,                                 ! Material Cost {$}
  CostPerArea;                            ! Material Cost Units

