
OS:Version,
  {ae5de2ef-d2c6-4762-a4a3-216aad33806e}, ! Handle
  0.9.3;                                  ! Version Identifier

OS:Construction,
  {ee5ba80a-7539-4878-874f-9a639d5c17aa}, ! Handle
  90.1 Windows Window Fixed 2426 Brk-HptMpr-Ins-ClrPye, ! Name
  ,                                       ! Surface Rendering Name
  {c8d3089a-cc03-4b0c-905d-3455b1969076}; ! Layer 1

OS:WindowMaterial:Glazing,
  {c8d3089a-cc03-4b0c-905d-3455b1969076}, ! Handle
  Theoretical Glass [510],                ! Name
  SpectralAverage,                        ! Optical Data Type
  ,                                       ! Window Glass Spectral Data Set Name
  0.003,                                  ! Thickness {m}
  0.245075,                               ! Solar Transmittance at Normal Incidence
  0.704925,                               ! Front Side Solar Reflectance at Normal Incidence
  0.704925,                               ! Back Side Solar Reflectance at Normal Incidence
  0.320998,                               ! Visible Transmittance at Normal Incidence
  0.629002,                               ! Front Side Visible Reflectance at Normal Incidence
  0.629002,                               ! Back Side Visible Reflectance at Normal Incidence
  0,                                      ! Infrared Transmittance at Normal Incidence
  0.9,                                    ! Front Side Infrared Hemispherical Emissivity
  0.9,                                    ! Back Side Infrared Hemispherical Emissivity
  0.0129885;                              ! Conductivity {W/m-K}

OS:ComponentCost:LineItem,
  {41ec4fac-e1be-40f4-beb6-79315c046153}, ! Handle
  90.1 Windows Window Fixed 2426 Brk-HptMpr-Ins-ClrPye, ! Name
  ,                                       ! Type
  Construction,                           ! Line Item Type
  90.1 Windows Window Fixed 2426 Brk-HptMpr-Ins-ClrPye, ! Item Name
  ,                                       ! Object End Use Key
  ,                                       ! Quantity {dimensionless}
  0,                                      ! Material Cost {$}
  CostPerArea;                            ! Material Cost Units

OS:ComponentData,
  {0e18df53-45ca-48dc-9852-8b615559f72c}, ! Handle
  Component Data 1,                       ! Name
  {e9fa3cb2-50b8-4242-b3bc-6b155e68579e}, ! UUID
  {d0a637b7-8b9a-488b-aa34-ca16a32f38d5}, ! Version UUID
  1363981025,                             ! Creation Timestamp
  1363981025,                             ! Version Timestamp
  {ee5ba80a-7539-4878-874f-9a639d5c17aa}, ! Name of Object 1
  {c8d3089a-cc03-4b0c-905d-3455b1969076}, ! Name of Object 2
  {41ec4fac-e1be-40f4-beb6-79315c046153}; ! Name of Object 3

