
OS:Version,
  {2fc45eaa-0c12-4db1-856d-c64932f1fc20}, ! Handle
  0.9.3;                                  ! Version Identifier

OS:WindowMaterial:Glazing,
  {639559a3-c46d-49a1-a35e-a6dfd0e7cd44}, ! Handle
  Theoretical Glass [510],                ! Name
  SpectralAverage,                        ! Optical Data Type
  ,                                       ! Window Glass Spectral Data Set Name
  0.003,                                  ! Thickness {m}
  0.245075,                               ! Solar Transmittance at Normal Incidence
  0.704925,                               ! Front Side Solar Reflectance at Normal Incidence
  0.704925,                               ! Back Side Solar Reflectance at Normal Incidence
  0.320998,                               ! Visible Transmittance at Normal Incidence
  0.629002,                               ! Front Side Visible Reflectance at Normal Incidence
  0.629002,                               ! Back Side Visible Reflectance at Normal Incidence
  0,                                      ! Infrared Transmittance at Normal Incidence
  0.9,                                    ! Front Side Infrared Hemispherical Emissivity
  0.9,                                    ! Back Side Infrared Hemispherical Emissivity
  0.0129885;                              ! Conductivity {W/m-K}

OS:ComponentCost:LineItem,
  {2cd93578-1643-49c9-8d3d-5e0a7205d745}, ! Handle
  90.1 Windows Window Fixed 2426 Brk-HptMpr-Ins-ClrPye, ! Name
  ,                                       ! Type
  Construction,                           ! Line Item Type
  90.1 Windows Window Fixed 2426 Brk-HptMpr-Ins-ClrPye, ! Item Name
  ,                                       ! Object End Use Key
  ,                                       ! Quantity {dimensionless}
  0,                                      ! Material Cost {$}
  CostPerArea;                            ! Material Cost Units

OS:Construction,
  {80a83d9c-8c55-43de-bda8-4cd2b88bdfef}, ! Handle
  90.1 Windows Window Fixed 2426 Brk-HptMpr-Ins-ClrPye, ! Name
  ,                                       ! Surface Rendering Name
  {639559a3-c46d-49a1-a35e-a6dfd0e7cd44}; ! Layer 1

