
OS:Version,
  {ed93e5fe-a2ac-4148-a2c9-bc20d13e98ed}, ! Handle
  0.9.3;                                  ! Version Identifier

OS:Material,
  {f78feb8b-6ad4-4ab6-87ab-dd0c30f38138}, ! Handle
  Roof Membrane,                          ! Name
  VeryRough,                              ! Roughness
  0.0095,                                 ! Thickness {m}
  0.16,                                   ! Conductivity {W/m-K}
  1121.29,                                ! Density {kg/m3}
  1460,                                   ! Specific Heat {J/kg-K}
  0.9,                                    ! Thermal Absorptance
  0.7,                                    ! Solar Absorptance
  0.7;                                    ! Visible Absorptance

OS:Material,
  {51e05596-53a5-4d55-9feb-884d8d89812d}, ! Handle
  Roof Insulation,                        ! Name
  MediumRough,                            ! Roughness
  0.124958,                               ! Thickness {m}
  0.049,                                  ! Conductivity {W/m-K}
  265,                                    ! Density {kg/m3}
  836.8,                                  ! Specific Heat {J/kg-K}
  0.9,                                    ! Thermal Absorptance
  0.7,                                    ! Solar Absorptance
  0.7;                                    ! Visible Absorptance

OS:ComponentCost:LineItem,
  {0b174544-82f5-4af4-91ea-48f3ee8d8367}, ! Handle
  90.1-2001 Nonres B6 Roof IEAD,          ! Name
  ,                                       ! Type
  Construction,                           ! Line Item Type
  90.1-2001 Nonres B6 Roof IEAD,          ! Item Name
  ,                                       ! Object End Use Key
  ,                                       ! Quantity {dimensionless}
  49.208,                                 ! Material Cost {$}
  CostPerArea;                            ! Material Cost Units

OS:Material,
  {173288cb-ac3e-4d8e-9a40-a29e21798063}, ! Handle
  Metal Decking,                          ! Name
  MediumSmooth,                           ! Roughness
  0.001524,                               ! Thickness {m}
  45.006,                                 ! Conductivity {W/m-K}
  7680,                                   ! Density {kg/m3}
  418.4,                                  ! Specific Heat {J/kg-K}
  0.9,                                    ! Thermal Absorptance
  0.7,                                    ! Solar Absorptance
  0.3;                                    ! Visible Absorptance

OS:Construction,
  {318ea300-81c8-460f-ba6b-90ecfe067268}, ! Handle
  90.1-2001 Nonres B6 Roof IEAD,          ! Name
  ,                                       ! Surface Rendering Name
  {f78feb8b-6ad4-4ab6-87ab-dd0c30f38138}, ! Layer 1
  {51e05596-53a5-4d55-9feb-884d8d89812d}, ! Layer 2
  {173288cb-ac3e-4d8e-9a40-a29e21798063}; ! Layer 3

