
OS:Version,
  {fd6d3f23-5b6d-4d9a-8c72-242bdebea067}, ! Handle
  0.9.3;                                  ! Version Identifier

OS:Construction,
  {93780031-b0be-4242-93c3-1f9c72f2201d}, ! Handle
  189.1-2009 Nonres 1A Ext Wall Wood-Framed and Other, ! Name
  ,                                       ! Surface Rendering Name
  {80ededb4-05cc-4f61-ad64-047c84dfdbfd}, ! Layer 1
  {541fbf16-f351-4b42-a41e-c50fa48f07c7}, ! Layer 2
  {61e88666-2752-4a6d-b0ae-691f2f5e5bac}; ! Layer 3

OS:Material,
  {80ededb4-05cc-4f61-ad64-047c84dfdbfd}, ! Handle
  Wood Siding,                            ! Name
  MediumSmooth,                           ! Roughness
  0.01,                                   ! Thickness {m}
  0.11,                                   ! Conductivity {W/m-K}
  544.62,                                 ! Density {kg/m3}
  1210,                                   ! Specific Heat {J/kg-K}
  0.9,                                    ! Thermal Absorptance
  0.78,                                   ! Solar Absorptance
  0.78;                                   ! Visible Absorptance

OS:Material,
  {541fbf16-f351-4b42-a41e-c50fa48f07c7}, ! Handle
  Wall Insulation [34],                   ! Name
  MediumRough,                            ! Roughness
  0.110422,                               ! Thickness {m}
  0.045,                                  ! Conductivity {W/m-K}
  265,                                    ! Density {kg/m3}
  836.8,                                  ! Specific Heat {J/kg-K}
  0.9,                                    ! Thermal Absorptance
  0.7,                                    ! Solar Absorptance
  0.7;                                    ! Visible Absorptance

OS:Material,
  {61e88666-2752-4a6d-b0ae-691f2f5e5bac}, ! Handle
  1/2IN Gypsum,                           ! Name
  Smooth,                                 ! Roughness
  0.01271,                                ! Thickness {m}
  0.16,                                   ! Conductivity {W/m-K}
  784.9,                                  ! Density {kg/m3}
  830,                                    ! Specific Heat {J/kg-K}
  0.9,                                    ! Thermal Absorptance
  0.92,                                   ! Solar Absorptance
  0.92;                                   ! Visible Absorptance

OS:ComponentCost:LineItem,
  {78199e79-d8bd-4e85-810e-9a484204976b}, ! Handle
  189.1-2009 Nonres 1A Ext Wall Wood-Framed and Other, ! Name
  ,                                       ! Type
  Construction,                           ! Line Item Type
  189.1-2009 Nonres 1A Ext Wall Wood-Framed and Other, ! Item Name
  ,                                       ! Object End Use Key
  ,                                       ! Quantity {dimensionless}
  77.743,                                 ! Material Cost {$}
  CostPerArea;                            ! Material Cost Units

OS:ComponentData,
  {b2335125-2dec-4800-adba-161667df47fb}, ! Handle
  Component Data 1,                       ! Name
  {659b18cf-3f2b-4faf-af5f-762924449972}, ! UUID
  {5bac5609-83d0-46f0-aea6-0c5f38afd376}, ! Version UUID
  1363979819,                             ! Creation Timestamp
  1363979819,                             ! Version Timestamp
  {93780031-b0be-4242-93c3-1f9c72f2201d}, ! Name of Object 1
  {80ededb4-05cc-4f61-ad64-047c84dfdbfd}, ! Name of Object 2
  {541fbf16-f351-4b42-a41e-c50fa48f07c7}, ! Name of Object 3
  {61e88666-2752-4a6d-b0ae-691f2f5e5bac}, ! Name of Object 4
  {78199e79-d8bd-4e85-810e-9a484204976b}; ! Name of Object 5

