
OS:Version,
  {02f0fad7-ffe8-4140-a9d2-34dc89a80c62}, ! Handle
  0.9.3;                                  ! Version Identifier

OS:ComponentCost:LineItem,
  {5e5b99be-90d9-47c4-bd42-8667d59ba583}, ! Handle
  189.1-2009 Nonres 1A Ext Wall Wood-Framed and Other, ! Name
  ,                                       ! Type
  Construction,                           ! Line Item Type
  189.1-2009 Nonres 1A Ext Wall Wood-Framed and Other, ! Item Name
  ,                                       ! Object End Use Key
  ,                                       ! Quantity {dimensionless}
  77.743,                                 ! Material Cost {$}
  CostPerArea;                            ! Material Cost Units

OS:Construction,
  {9e199648-7004-42e6-b34e-701a99ce92a6}, ! Handle
  189.1-2009 Nonres 1A Ext Wall Wood-Framed and Other, ! Name
  ,                                       ! Surface Rendering Name
  {46d98a64-8243-4d87-8fa5-0a2c9ef5f7b6}, ! Layer 1
  {cadcaf3b-80f0-4a94-8d4d-0197f2acdaf4}, ! Layer 2
  {7ea22706-5694-414a-bf55-1af599816727}; ! Layer 3

OS:Material,
  {46d98a64-8243-4d87-8fa5-0a2c9ef5f7b6}, ! Handle
  Wood Siding,                            ! Name
  MediumSmooth,                           ! Roughness
  0.01,                                   ! Thickness {m}
  0.11,                                   ! Conductivity {W/m-K}
  544.62,                                 ! Density {kg/m3}
  1210,                                   ! Specific Heat {J/kg-K}
  0.9,                                    ! Thermal Absorptance
  0.78,                                   ! Solar Absorptance
  0.78;                                   ! Visible Absorptance

OS:Material,
  {cadcaf3b-80f0-4a94-8d4d-0197f2acdaf4}, ! Handle
  Wall Insulation [34],                   ! Name
  MediumRough,                            ! Roughness
  0.110422,                               ! Thickness {m}
  0.045,                                  ! Conductivity {W/m-K}
  265,                                    ! Density {kg/m3}
  836.8,                                  ! Specific Heat {J/kg-K}
  0.9,                                    ! Thermal Absorptance
  0.7,                                    ! Solar Absorptance
  0.7;                                    ! Visible Absorptance

OS:Material,
  {7ea22706-5694-414a-bf55-1af599816727}, ! Handle
  1/2IN Gypsum,                           ! Name
  Smooth,                                 ! Roughness
  0.01271,                                ! Thickness {m}
  0.16,                                   ! Conductivity {W/m-K}
  784.9,                                  ! Density {kg/m3}
  830,                                    ! Specific Heat {J/kg-K}
  0.9,                                    ! Thermal Absorptance
  0.92,                                   ! Solar Absorptance
  0.92;                                   ! Visible Absorptance

