
OS:Version,
  {1171f32b-d676-440a-a796-6ea6e06bef6f}, ! Handle
  0.9.3;                                  ! Version Identifier

OS:Construction,
  {f14bdbcd-7bb3-421c-9622-3abffb7e7670}, ! Handle
  90.1-2007 Res 3A Window Metal framing all other, ! Name
  ,                                       ! Surface Rendering Name
  {fc300adc-40ee-44cb-b623-068739386d9f}; ! Layer 1

OS:WindowMaterial:Glazing,
  {fc300adc-40ee-44cb-b623-068739386d9f}, ! Handle
  Theoretical Glass [174],                ! Name
  SpectralAverage,                        ! Optical Data Type
  ,                                       ! Window Glass Spectral Data Set Name
  0.003,                                  ! Thickness {m}
  0.242714,                               ! Solar Transmittance at Normal Incidence
  0.707286,                               ! Front Side Solar Reflectance at Normal Incidence
  0.707286,                               ! Back Side Solar Reflectance at Normal Incidence
  0.319199,                               ! Visible Transmittance at Normal Incidence
  0.630801,                               ! Front Side Visible Reflectance at Normal Incidence
  0.630801,                               ! Back Side Visible Reflectance at Normal Incidence
  0,                                      ! Infrared Transmittance at Normal Incidence
  0.9,                                    ! Front Side Infrared Hemispherical Emissivity
  0.9,                                    ! Back Side Infrared Hemispherical Emissivity
  0.026242;                               ! Conductivity {W/m-K}

OS:ComponentCost:LineItem,
  {29cc672f-197c-4c73-995a-f44fc287e146}, ! Handle
  90.1-2007 Res 3A Window Metal framing all other, ! Name
  ,                                       ! Type
  Construction,                           ! Line Item Type
  90.1-2007 Res 3A Window Metal framing all other, ! Item Name
  ,                                       ! Object End Use Key
  ,                                       ! Quantity {dimensionless}
  563.991,                                ! Material Cost {$}
  CostPerArea;                            ! Material Cost Units

OS:ComponentData,
  {6505ab52-4772-4422-a3ed-fb1e6c2c8a2f}, ! Handle
  Component Data 1,                       ! Name
  {5e821490-190c-45b9-8427-c462d5375bdf}, ! UUID
  {301977ee-957c-409f-a86d-08aea901998e}, ! Version UUID
  1363981849,                             ! Creation Timestamp
  1363981849,                             ! Version Timestamp
  {f14bdbcd-7bb3-421c-9622-3abffb7e7670}, ! Name of Object 1
  {fc300adc-40ee-44cb-b623-068739386d9f}, ! Name of Object 2
  {29cc672f-197c-4c73-995a-f44fc287e146}; ! Name of Object 3

