
OS:Version,
  {dee5fef8-72ce-4210-873d-fb37435c8f47}, ! Handle
  0.9.3;                                  ! Version Identifier

OS:Construction,
  {6b32e825-e7ec-4b5f-aa75-f75a8374e71d}, ! Handle
  90.1-2007 Res 3A Window Metal framing all other, ! Name
  ,                                       ! Surface Rendering Name
  {1ee86938-dae8-4498-9026-b9d60453a06e}; ! Layer 1

OS:WindowMaterial:Glazing,
  {1ee86938-dae8-4498-9026-b9d60453a06e}, ! Handle
  Theoretical Glass [174],                ! Name
  SpectralAverage,                        ! Optical Data Type
  ,                                       ! Window Glass Spectral Data Set Name
  0.003,                                  ! Thickness {m}
  0.242714,                               ! Solar Transmittance at Normal Incidence
  0.707286,                               ! Front Side Solar Reflectance at Normal Incidence
  0.707286,                               ! Back Side Solar Reflectance at Normal Incidence
  0.319199,                               ! Visible Transmittance at Normal Incidence
  0.630801,                               ! Front Side Visible Reflectance at Normal Incidence
  0.630801,                               ! Back Side Visible Reflectance at Normal Incidence
  0,                                      ! Infrared Transmittance at Normal Incidence
  0.9,                                    ! Front Side Infrared Hemispherical Emissivity
  0.9,                                    ! Back Side Infrared Hemispherical Emissivity
  0.026242;                               ! Conductivity {W/m-K}

OS:ComponentCost:LineItem,
  {ca99433d-bb59-4331-9b86-cae736293ad3}, ! Handle
  90.1-2007 Res 3A Window Metal framing all other, ! Name
  ,                                       ! Type
  Construction,                           ! Line Item Type
  90.1-2007 Res 3A Window Metal framing all other, ! Item Name
  ,                                       ! Object End Use Key
  ,                                       ! Quantity {dimensionless}
  563.991,                                ! Material Cost {$}
  CostPerArea;                            ! Material Cost Units

