
OS:Version,
  {ee5cc5fd-be61-4079-80c0-4b42fc4e7ac2}, ! Handle
  0.9.3;                                  ! Version Identifier

OS:Construction,
  {77b1668e-28a5-4770-8fc8-1309f1791413}, ! Handle
  189.1-2009 Res 7A Door Swinging,        ! Name
  ,                                       ! Surface Rendering Name
  {45c55c1e-bbad-4ee4-a429-a21b78ea6414}, ! Layer 1
  {3c26c2bf-a2a5-4f31-b19f-df44da6cf531}, ! Layer 2
  {7c8c7928-23a4-4e3b-871f-13e1f2a283dd}; ! Layer 3

OS:Material,
  {45c55c1e-bbad-4ee4-a429-a21b78ea6414}, ! Handle
  METAL Door Medium 18Ga_1,               ! Name
  Smooth,                                 ! Roughness
  0.0013106,                              ! Thickness {m}
  45.3149,                                ! Conductivity {W/m-K}
  7833.03,                                ! Density {kg/m3}
  502.08,                                 ! Specific Heat {J/kg-K}
  0.8,                                    ! Thermal Absorptance
  0.5,                                    ! Solar Absorptance
  0.5;                                    ! Visible Absorptance

OS:Material:NoMass,
  {3c26c2bf-a2a5-4f31-b19f-df44da6cf531}, ! Handle
  AIR [5],                                ! Name
  Smooth,                                 ! Roughness
  0.440339,                               ! Thermal Resistance {m2-K/W}
  0.8,                                    ! Thermal Absorptance
  0.5,                                    ! Solar Absorptance
  0.5;                                    ! Visible Absorptance

OS:Material,
  {7c8c7928-23a4-4e3b-871f-13e1f2a283dd}, ! Handle
  METAL Door Medium 18Ga_2,               ! Name
  Smooth,                                 ! Roughness
  0.0013106,                              ! Thickness {m}
  45.3149,                                ! Conductivity {W/m-K}
  7833.03,                                ! Density {kg/m3}
  502.08,                                 ! Specific Heat {J/kg-K}
  0.8,                                    ! Thermal Absorptance
  0.5,                                    ! Solar Absorptance
  0.5;                                    ! Visible Absorptance

OS:ComponentCost:LineItem,
  {54d0d612-acb5-48e8-9906-a6a6596d7a55}, ! Handle
  189.1-2009 Res 7A Door Swinging,        ! Name
  ,                                       ! Type
  Construction,                           ! Line Item Type
  189.1-2009 Res 7A Door Swinging,        ! Item Name
  ,                                       ! Object End Use Key
  ,                                       ! Quantity {dimensionless}
  0,                                      ! Material Cost {$}
  CostPerArea;                            ! Material Cost Units

OS:ComponentData,
  {6a614666-c560-4cc8-9f4b-9a1647ae2a1d}, ! Handle
  Component Data 1,                       ! Name
  {d47dfb81-14c7-4459-9490-e03a2bdf551a}, ! UUID
  {25866523-8ffa-438e-96b7-d7a64279185a}, ! Version UUID
  1363980985,                             ! Creation Timestamp
  1363980985,                             ! Version Timestamp
  {77b1668e-28a5-4770-8fc8-1309f1791413}, ! Name of Object 1
  {45c55c1e-bbad-4ee4-a429-a21b78ea6414}, ! Name of Object 2
  {3c26c2bf-a2a5-4f31-b19f-df44da6cf531}, ! Name of Object 3
  {7c8c7928-23a4-4e3b-871f-13e1f2a283dd}, ! Name of Object 4
  {54d0d612-acb5-48e8-9906-a6a6596d7a55}; ! Name of Object 5

