
OS:Version,
  {5b77d3fa-9032-4002-840c-34a9b5dba265}, ! Handle
  0.9.3;                                  ! Version Identifier

OS:ComponentCost:LineItem,
  {41e1f98f-1661-44b8-abf1-b580e560f349}, ! Handle
  90.1-1999 Res B25 Roof Metal Building,  ! Name
  ,                                       ! Type
  Construction,                           ! Line Item Type
  90.1-1999 Res B25 Roof Metal Building,  ! Item Name
  ,                                       ! Object End Use Key
  ,                                       ! Quantity {dimensionless}
  42.184,                                 ! Material Cost {$}
  CostPerArea;                            ! Material Cost Units

OS:Material,
  {47f5c41b-75fa-4d24-b086-3ce5721af352}, ! Handle
  Roof Insulation [8],                    ! Name
  MediumRough,                            ! Roughness
  0.166908,                               ! Thickness {m}
  0.049,                                  ! Conductivity {W/m-K}
  265,                                    ! Density {kg/m3}
  836.8,                                  ! Specific Heat {J/kg-K}
  0.9,                                    ! Thermal Absorptance
  0.7,                                    ! Solar Absorptance
  0.7;                                    ! Visible Absorptance

OS:Construction,
  {74a80aeb-d9e7-44c2-b51d-51c38ea7cd24}, ! Handle
  90.1-1999 Res B25 Roof Metal Building,  ! Name
  ,                                       ! Surface Rendering Name
  {e447d27f-e869-4b87-ad32-49da2d2a21ca}, ! Layer 1
  {47f5c41b-75fa-4d24-b086-3ce5721af352}; ! Layer 2

OS:Material,
  {e447d27f-e869-4b87-ad32-49da2d2a21ca}, ! Handle
  Metal Roofing,                          ! Name
  MediumSmooth,                           ! Roughness
  0.001524,                               ! Thickness {m}
  45.006,                                 ! Conductivity {W/m-K}
  7680,                                   ! Density {kg/m3}
  418.4,                                  ! Specific Heat {J/kg-K}
  0.9,                                    ! Thermal Absorptance
  0.7,                                    ! Solar Absorptance
  0.3;                                    ! Visible Absorptance

