
OS:Version,
  {09024c7b-bae2-41e7-8a84-06d457d13aab}, ! Handle
  0.9.3;                                  ! Version Identifier

OS:Construction,
  {d4970f4e-a1a4-4ad1-96e2-9ca6ba7e011d}, ! Handle
  90.1-2001 Res B9 Window Fixed,          ! Name
  ,                                       ! Surface Rendering Name
  {24f069f0-71d2-4e20-91c3-ddad048e5c24}; ! Layer 1

OS:WindowMaterial:Glazing,
  {24f069f0-71d2-4e20-91c3-ddad048e5c24}, ! Handle
  Theoretical Glass [59],                 ! Name
  SpectralAverage,                        ! Optical Data Type
  ,                                       ! Window Glass Spectral Data Set Name
  0.003,                                  ! Thickness {m}
  0.595623,                               ! Solar Transmittance at Normal Incidence
  0.354377,                               ! Front Side Solar Reflectance at Normal Incidence
  0.354377,                               ! Back Side Solar Reflectance at Normal Incidence
  0.609218,                               ! Visible Transmittance at Normal Incidence
  0.340782,                               ! Front Side Visible Reflectance at Normal Incidence
  0.340782,                               ! Back Side Visible Reflectance at Normal Incidence
  0,                                      ! Infrared Transmittance at Normal Incidence
  0.999,                                  ! Front Side Infrared Hemispherical Emissivity
  0.999,                                  ! Back Side Infrared Hemispherical Emissivity
  9.36219;                                ! Conductivity {W/m-K}

OS:ComponentCost:LineItem,
  {19a189cb-4bc0-4425-abeb-0a87968de02a}, ! Handle
  90.1-2001 Res B9 Window Fixed,          ! Name
  ,                                       ! Type
  Construction,                           ! Line Item Type
  90.1-2001 Res B9 Window Fixed,          ! Item Name
  ,                                       ! Object End Use Key
  ,                                       ! Quantity {dimensionless}
  459.189,                                ! Material Cost {$}
  CostPerArea;                            ! Material Cost Units

