
OS:Version,
  {051e8dd8-3a29-4976-9e41-ac3d29cc313f}, ! Handle
  0.9.3;                                  ! Version Identifier

OS:Material,
  {278143eb-662b-4a01-a321-e3c4e5812b29}, ! Handle
  Roof Membrane,                          ! Name
  VeryRough,                              ! Roughness
  0.0095,                                 ! Thickness {m}
  0.16,                                   ! Conductivity {W/m-K}
  1121.29,                                ! Density {kg/m3}
  1460,                                   ! Specific Heat {J/kg-K}
  0.9,                                    ! Thermal Absorptance
  0.7,                                    ! Solar Absorptance
  0.7;                                    ! Visible Absorptance

OS:Construction,
  {2be6010c-927c-430f-a204-76a2da483cca}, ! Handle
  90.1-2007 Res 2A Roof IEAD,             ! Name
  ,                                       ! Surface Rendering Name
  {278143eb-662b-4a01-a321-e3c4e5812b29}, ! Layer 1
  {55cface4-c206-4986-b052-d7abcb4de48f}, ! Layer 2
  {6dd0b080-fd43-4197-863f-38ae86d84aed}; ! Layer 3

OS:Material,
  {55cface4-c206-4986-b052-d7abcb4de48f}, ! Handle
  Roof Insulation [14],                   ! Name
  MediumRough,                            ! Roughness
  0.167335,                               ! Thickness {m}
  0.049,                                  ! Conductivity {W/m-K}
  265,                                    ! Density {kg/m3}
  836.8,                                  ! Specific Heat {J/kg-K}
  0.9,                                    ! Thermal Absorptance
  0.7,                                    ! Solar Absorptance
  0.7;                                    ! Visible Absorptance

OS:Material,
  {6dd0b080-fd43-4197-863f-38ae86d84aed}, ! Handle
  Metal Decking,                          ! Name
  MediumSmooth,                           ! Roughness
  0.001524,                               ! Thickness {m}
  45.006,                                 ! Conductivity {W/m-K}
  7680,                                   ! Density {kg/m3}
  418.4,                                  ! Specific Heat {J/kg-K}
  0.9,                                    ! Thermal Absorptance
  0.7,                                    ! Solar Absorptance
  0.3;                                    ! Visible Absorptance

OS:ComponentCost:LineItem,
  {6d52b0e7-69ea-499c-9dc5-44db4e113d3f}, ! Handle
  90.1-2007 Res 2A Roof IEAD,             ! Name
  ,                                       ! Type
  Construction,                           ! Line Item Type
  90.1-2007 Res 2A Roof IEAD,             ! Item Name
  ,                                       ! Object End Use Key
  ,                                       ! Quantity {dimensionless}
  52.87,                                  ! Material Cost {$}
  CostPerArea;                            ! Material Cost Units

