
OS:Version,
  {30145d78-dac4-47e2-87b5-cc8d30df36fc}, ! Handle
  0.9.3;                                  ! Version Identifier

OS:Construction,
  {f9285f06-8018-4ddd-a9f7-c00dc8d27c5b}, ! Handle
  90.1 Windows Window Fixed 2125 Mtl-GrnMpr-Std-ClrPye, ! Name
  ,                                       ! Surface Rendering Name
  {b041d34f-642e-4bfd-b642-3f83e77760ea}; ! Layer 1

OS:WindowMaterial:Glazing,
  {b041d34f-642e-4bfd-b642-3f83e77760ea}, ! Handle
  Theoretical Glass [426],                ! Name
  SpectralAverage,                        ! Optical Data Type
  ,                                       ! Window Glass Spectral Data Set Name
  0.003,                                  ! Thickness {m}
  0.322915,                               ! Solar Transmittance at Normal Incidence
  0.627085,                               ! Front Side Solar Reflectance at Normal Incidence
  0.627085,                               ! Back Side Solar Reflectance at Normal Incidence
  0.330719,                               ! Visible Transmittance at Normal Incidence
  0.619281,                               ! Front Side Visible Reflectance at Normal Incidence
  0.619281,                               ! Back Side Visible Reflectance at Normal Incidence
  0,                                      ! Infrared Transmittance at Normal Incidence
  0.9,                                    ! Front Side Infrared Hemispherical Emissivity
  0.9,                                    ! Back Side Infrared Hemispherical Emissivity
  0.0220475;                              ! Conductivity {W/m-K}

OS:ComponentCost:LineItem,
  {095abfef-2058-42d8-8aa9-a45a3b2775a3}, ! Handle
  90.1 Windows Window Fixed 2125 Mtl-GrnMpr-Std-ClrPye, ! Name
  ,                                       ! Type
  Construction,                           ! Line Item Type
  90.1 Windows Window Fixed 2125 Mtl-GrnMpr-Std-ClrPye, ! Item Name
  ,                                       ! Object End Use Key
  ,                                       ! Quantity {dimensionless}
  0,                                      ! Material Cost {$}
  CostPerArea;                            ! Material Cost Units

OS:ComponentData,
  {08cce91a-143d-4e4c-8d0a-d222e5b6174a}, ! Handle
  Component Data 1,                       ! Name
  {b2cfa37b-5f24-4ab8-b4ba-a5bea5130dae}, ! UUID
  {263268b5-77f5-4e1d-b071-cdb9d281d01d}, ! Version UUID
  1363981017,                             ! Creation Timestamp
  1363981017,                             ! Version Timestamp
  {f9285f06-8018-4ddd-a9f7-c00dc8d27c5b}, ! Name of Object 1
  {b041d34f-642e-4bfd-b642-3f83e77760ea}, ! Name of Object 2
  {095abfef-2058-42d8-8aa9-a45a3b2775a3}; ! Name of Object 3

