
OS:Version,
  {46ab44dd-af4f-47f7-9b16-3f830cd94ebd}, ! Handle
  0.9.3;                                  ! Version Identifier

OS:Construction,
  {31db25c7-c20a-42fb-9abf-4a660af6ff4f}, ! Handle
  90.1 Windows Window Fixed 2125 Mtl-GrnMpr-Std-ClrPye, ! Name
  ,                                       ! Surface Rendering Name
  {12697760-756f-4244-a53d-c75a9cb60121}; ! Layer 1

OS:WindowMaterial:Glazing,
  {12697760-756f-4244-a53d-c75a9cb60121}, ! Handle
  Theoretical Glass [426],                ! Name
  SpectralAverage,                        ! Optical Data Type
  ,                                       ! Window Glass Spectral Data Set Name
  0.003,                                  ! Thickness {m}
  0.322915,                               ! Solar Transmittance at Normal Incidence
  0.627085,                               ! Front Side Solar Reflectance at Normal Incidence
  0.627085,                               ! Back Side Solar Reflectance at Normal Incidence
  0.330719,                               ! Visible Transmittance at Normal Incidence
  0.619281,                               ! Front Side Visible Reflectance at Normal Incidence
  0.619281,                               ! Back Side Visible Reflectance at Normal Incidence
  0,                                      ! Infrared Transmittance at Normal Incidence
  0.9,                                    ! Front Side Infrared Hemispherical Emissivity
  0.9,                                    ! Back Side Infrared Hemispherical Emissivity
  0.0220475;                              ! Conductivity {W/m-K}

OS:ComponentCost:LineItem,
  {ca531862-43ac-4ef9-b615-034b9945b2a9}, ! Handle
  90.1 Windows Window Fixed 2125 Mtl-GrnMpr-Std-ClrPye, ! Name
  ,                                       ! Type
  Construction,                           ! Line Item Type
  90.1 Windows Window Fixed 2125 Mtl-GrnMpr-Std-ClrPye, ! Item Name
  ,                                       ! Object End Use Key
  ,                                       ! Quantity {dimensionless}
  0,                                      ! Material Cost {$}
  CostPerArea;                            ! Material Cost Units

