
OS:Version,
  {89f2a143-3ad5-4067-b7e8-d6d2be31174f}, ! Handle
  0.9.3;                                  ! Version Identifier

OS:Material,
  {92406de7-535b-4528-8416-c83da3b1baf9}, ! Handle
  Roof Insulation [2],                    ! Name
  MediumRough,                            ! Roughness
  0.221604,                               ! Thickness {m}
  0.049,                                  ! Conductivity {W/m-K}
  265,                                    ! Density {kg/m3}
  836.8,                                  ! Specific Heat {J/kg-K}
  0.9,                                    ! Thermal Absorptance
  0.7,                                    ! Solar Absorptance
  0.7;                                    ! Visible Absorptance

OS:Material,
  {e3dd7780-4cda-43b0-af12-525b4b87e927}, ! Handle
  1/2IN Gypsum,                           ! Name
  Smooth,                                 ! Roughness
  0.01271,                                ! Thickness {m}
  0.16,                                   ! Conductivity {W/m-K}
  784.9,                                  ! Density {kg/m3}
  830,                                    ! Specific Heat {J/kg-K}
  0.9,                                    ! Thermal Absorptance
  0.92,                                   ! Solar Absorptance
  0.92;                                   ! Visible Absorptance

OS:Construction,
  {63cbc566-72f4-42e0-ae21-d0082e3925ac}, ! Handle
  90.1-2004 Nonres 4B Roof Attic and Other, ! Name
  ,                                       ! Surface Rendering Name
  {d853fff8-9de3-4242-a083-f6641017d391}, ! Layer 1
  {40e24355-31b7-40ce-be16-823bf3434982}, ! Layer 2
  {92406de7-535b-4528-8416-c83da3b1baf9}, ! Layer 3
  {e3dd7780-4cda-43b0-af12-525b4b87e927}; ! Layer 4

OS:Material,
  {d853fff8-9de3-4242-a083-f6641017d391}, ! Handle
  Wood Shingles,                          ! Name
  VeryRough,                              ! Roughness
  0.0178,                                 ! Thickness {m}
  0.115,                                  ! Conductivity {W/m-K}
  513,                                    ! Density {kg/m3}
  1255,                                   ! Specific Heat {J/kg-K}
  0.9,                                    ! Thermal Absorptance
  0.78,                                   ! Solar Absorptance
  0.78;                                   ! Visible Absorptance

OS:Material,
  {40e24355-31b7-40ce-be16-823bf3434982}, ! Handle
  1IN Wood Decking,                       ! Name
  MediumSmooth,                           ! Roughness
  0.0254,                                 ! Thickness {m}
  0.1211,                                 ! Conductivity {W/m-K}
  593,                                    ! Density {kg/m3}
  2510,                                   ! Specific Heat {J/kg-K}
  0.9,                                    ! Thermal Absorptance
  0.78,                                   ! Solar Absorptance
  0.78;                                   ! Visible Absorptance

OS:ComponentCost:LineItem,
  {cc1afd9b-6ea4-400c-989c-12b73581b3b4}, ! Handle
  90.1-2004 Nonres 4B Roof Attic and Other, ! Name
  ,                                       ! Type
  Construction,                           ! Line Item Type
  90.1-2004 Nonres 4B Roof Attic and Other, ! Item Name
  ,                                       ! Object End Use Key
  ,                                       ! Quantity {dimensionless}
  33.39,                                  ! Material Cost {$}
  CostPerArea;                            ! Material Cost Units

