
OS:Version,
  {0956de32-1bdb-4cdb-bf6a-b2afe5051e79}, ! Handle
  0.9.3;                                  ! Version Identifier

OS:Construction,
  {89efdde0-397c-4ae6-9f64-02173fdcba5c}, ! Handle
  90.1-2004 Nonres 3A Roof Metal Building, ! Name
  ,                                       ! Surface Rendering Name
  {dc9215d1-92ff-42d7-baa4-88ae8b97dc13}, ! Layer 1
  {950fc561-59db-4683-a55d-861693aa2741}; ! Layer 2

OS:Material,
  {dc9215d1-92ff-42d7-baa4-88ae8b97dc13}, ! Handle
  Metal Roofing,                          ! Name
  MediumSmooth,                           ! Roughness
  0.001524,                               ! Thickness {m}
  45.006,                                 ! Conductivity {W/m-K}
  7680,                                   ! Density {kg/m3}
  418.4,                                  ! Specific Heat {J/kg-K}
  0.9,                                    ! Thermal Absorptance
  0.7,                                    ! Solar Absorptance
  0.3;                                    ! Visible Absorptance

OS:Material,
  {950fc561-59db-4683-a55d-861693aa2741}, ! Handle
  Roof Insulation [1],                    ! Name
  MediumRough,                            ! Roughness
  0.123533,                               ! Thickness {m}
  0.049,                                  ! Conductivity {W/m-K}
  265,                                    ! Density {kg/m3}
  836.8,                                  ! Specific Heat {J/kg-K}
  0.9,                                    ! Thermal Absorptance
  0.7,                                    ! Solar Absorptance
  0.7;                                    ! Visible Absorptance

OS:ComponentCost:LineItem,
  {84ff6a39-12af-454f-8e70-c9194cae9a1e}, ! Handle
  90.1-2004 Nonres 3A Roof Metal Building, ! Name
  ,                                       ! Type
  Construction,                           ! Line Item Type
  90.1-2004 Nonres 3A Roof Metal Building, ! Item Name
  ,                                       ! Object End Use Key
  ,                                       ! Quantity {dimensionless}
  38.206,                                 ! Material Cost {$}
  CostPerArea;                            ! Material Cost Units

OS:ComponentData,
  {dc327cf7-5793-4a8b-b23b-0d494d0851a4}, ! Handle
  Component Data 1,                       ! Name
  {c5dcd339-ed0e-42e3-b93a-2588be911f1a}, ! UUID
  {fc0c199c-ebcf-4a33-8e5c-c6b3c7a8927b}, ! Version UUID
  1363981645,                             ! Creation Timestamp
  1363981645,                             ! Version Timestamp
  {89efdde0-397c-4ae6-9f64-02173fdcba5c}, ! Name of Object 1
  {dc9215d1-92ff-42d7-baa4-88ae8b97dc13}, ! Name of Object 2
  {950fc561-59db-4683-a55d-861693aa2741}, ! Name of Object 3
  {84ff6a39-12af-454f-8e70-c9194cae9a1e}; ! Name of Object 4

