
OS:Version,
  {5521e3fd-28d9-4647-8735-0373654fdeba}, ! Handle
  0.9.3;                                  ! Version Identifier

OS:Construction,
  {52ce90b1-e44d-490f-bd8f-388b06d54241}, ! Handle
  90.1-2004 Nonres 3A Roof Metal Building, ! Name
  ,                                       ! Surface Rendering Name
  {17aa792c-7a38-49e7-954c-939ab279c476}, ! Layer 1
  {a94d2fb0-85ef-44f2-8d79-f6674d554e54}; ! Layer 2

OS:Material,
  {17aa792c-7a38-49e7-954c-939ab279c476}, ! Handle
  Metal Roofing,                          ! Name
  MediumSmooth,                           ! Roughness
  0.001524,                               ! Thickness {m}
  45.006,                                 ! Conductivity {W/m-K}
  7680,                                   ! Density {kg/m3}
  418.4,                                  ! Specific Heat {J/kg-K}
  0.9,                                    ! Thermal Absorptance
  0.7,                                    ! Solar Absorptance
  0.3;                                    ! Visible Absorptance

OS:Material,
  {a94d2fb0-85ef-44f2-8d79-f6674d554e54}, ! Handle
  Roof Insulation [1],                    ! Name
  MediumRough,                            ! Roughness
  0.123533,                               ! Thickness {m}
  0.049,                                  ! Conductivity {W/m-K}
  265,                                    ! Density {kg/m3}
  836.8,                                  ! Specific Heat {J/kg-K}
  0.9,                                    ! Thermal Absorptance
  0.7,                                    ! Solar Absorptance
  0.7;                                    ! Visible Absorptance

OS:ComponentCost:LineItem,
  {9b447be9-0e01-4cde-ae07-ba402f8504bb}, ! Handle
  90.1-2004 Nonres 3A Roof Metal Building, ! Name
  ,                                       ! Type
  Construction,                           ! Line Item Type
  90.1-2004 Nonres 3A Roof Metal Building, ! Item Name
  ,                                       ! Object End Use Key
  ,                                       ! Quantity {dimensionless}
  38.206,                                 ! Material Cost {$}
  CostPerArea;                            ! Material Cost Units

