
OS:Version,
  {3f08e28d-1d53-44f0-b17c-a3efd818beb0}, ! Handle
  0.9.3;                                  ! Version Identifier

OS:Material,
  {78fd3835-4517-4500-9a05-bda62ac728a0}, ! Handle
  1IN Wood Decking,                       ! Name
  MediumSmooth,                           ! Roughness
  0.0254,                                 ! Thickness {m}
  0.1211,                                 ! Conductivity {W/m-K}
  593,                                    ! Density {kg/m3}
  2510,                                   ! Specific Heat {J/kg-K}
  0.9,                                    ! Thermal Absorptance
  0.78,                                   ! Solar Absorptance
  0.78;                                   ! Visible Absorptance

OS:Material,
  {8f956b87-1b78-47f3-bea5-eb16e3e4f9b1}, ! Handle
  Roof Insulation [5],                    ! Name
  MediumRough,                            ! Roughness
  0.286906,                               ! Thickness {m}
  0.049,                                  ! Conductivity {W/m-K}
  265,                                    ! Density {kg/m3}
  836.8,                                  ! Specific Heat {J/kg-K}
  0.9,                                    ! Thermal Absorptance
  0.7,                                    ! Solar Absorptance
  0.7;                                    ! Visible Absorptance

OS:ComponentCost:LineItem,
  {e6ec4ec7-9aef-4025-bd8b-b36e8b531723}, ! Handle
  90.1-1999 Nonres B16 Roof Attic and Other, ! Name
  ,                                       ! Type
  Construction,                           ! Line Item Type
  90.1-1999 Nonres B16 Roof Attic and Other, ! Item Name
  ,                                       ! Object End Use Key
  ,                                       ! Quantity {dimensionless}
  34.757,                                 ! Material Cost {$}
  CostPerArea;                            ! Material Cost Units

OS:Construction,
  {5c3bcddb-e62c-48c8-908d-badecd4d06d8}, ! Handle
  90.1-1999 Nonres B16 Roof Attic and Other, ! Name
  ,                                       ! Surface Rendering Name
  {cf1fd5a2-0eb9-4704-a42e-b7d6649fff32}, ! Layer 1
  {78fd3835-4517-4500-9a05-bda62ac728a0}, ! Layer 2
  {8f956b87-1b78-47f3-bea5-eb16e3e4f9b1}, ! Layer 3
  {ae3a30fc-28a9-4c1b-ba18-3f5c41d13c86}; ! Layer 4

OS:Material,
  {cf1fd5a2-0eb9-4704-a42e-b7d6649fff32}, ! Handle
  Wood Shingles,                          ! Name
  VeryRough,                              ! Roughness
  0.0178,                                 ! Thickness {m}
  0.115,                                  ! Conductivity {W/m-K}
  513,                                    ! Density {kg/m3}
  1255,                                   ! Specific Heat {J/kg-K}
  0.9,                                    ! Thermal Absorptance
  0.78,                                   ! Solar Absorptance
  0.78;                                   ! Visible Absorptance

OS:Material,
  {ae3a30fc-28a9-4c1b-ba18-3f5c41d13c86}, ! Handle
  1/2IN Gypsum,                           ! Name
  Smooth,                                 ! Roughness
  0.01271,                                ! Thickness {m}
  0.16,                                   ! Conductivity {W/m-K}
  784.9,                                  ! Density {kg/m3}
  830,                                    ! Specific Heat {J/kg-K}
  0.9,                                    ! Thermal Absorptance
  0.92,                                   ! Solar Absorptance
  0.92;                                   ! Visible Absorptance

