
OS:Version,
  {018e702d-a5ec-475e-9bb8-3cdbe095beef}, ! Handle
  0.9.3;                                  ! Version Identifier

OS:ComponentCost:LineItem,
  {3e94adf4-5d03-4f7c-8492-b7235c20ce6c}, ! Handle
  90.1-2001 Res B17 Roof Metal Building,  ! Name
  ,                                       ! Type
  Construction,                           ! Line Item Type
  90.1-2001 Res B17 Roof Metal Building,  ! Item Name
  ,                                       ! Object End Use Key
  ,                                       ! Quantity {dimensionless}
  38.206,                                 ! Material Cost {$}
  CostPerArea;                            ! Material Cost Units

OS:Construction,
  {aca5fbc0-aa3c-4997-ab05-b56f8428c2bc}, ! Handle
  90.1-2001 Res B17 Roof Metal Building,  ! Name
  ,                                       ! Surface Rendering Name
  {636cd928-57d6-44b2-b320-1f05fb173ebf}, ! Layer 1
  {24435d9b-9477-4a64-8aa1-07e0c36f6fd7}; ! Layer 2

OS:Material,
  {636cd928-57d6-44b2-b320-1f05fb173ebf}, ! Handle
  Metal Roofing,                          ! Name
  MediumSmooth,                           ! Roughness
  0.001524,                               ! Thickness {m}
  45.006,                                 ! Conductivity {W/m-K}
  7680,                                   ! Density {kg/m3}
  418.4,                                  ! Specific Heat {J/kg-K}
  0.9,                                    ! Thermal Absorptance
  0.7,                                    ! Solar Absorptance
  0.3;                                    ! Visible Absorptance

OS:Material,
  {24435d9b-9477-4a64-8aa1-07e0c36f6fd7}, ! Handle
  Roof Insulation [1],                    ! Name
  MediumRough,                            ! Roughness
  0.123533,                               ! Thickness {m}
  0.049,                                  ! Conductivity {W/m-K}
  265,                                    ! Density {kg/m3}
  836.8,                                  ! Specific Heat {J/kg-K}
  0.9,                                    ! Thermal Absorptance
  0.7,                                    ! Solar Absorptance
  0.7;                                    ! Visible Absorptance

