
OS:Version,
  {366ed392-c9d9-4658-b8b3-f0a04f941466}, ! Handle
  0.9.3;                                  ! Version Identifier

OS:Construction,
  {b4b7b80d-6bef-4b56-8088-96bbba92d941}, ! Handle
  189.1-2009 Nonres 6B Ext Slab Unheated - 4in Slab without Carpet, ! Name
  ,                                       ! Surface Rendering Name
  {82dfec86-c703-4981-ba1d-c1e696ca3040}; ! Layer 1

OS:Material,
  {82dfec86-c703-4981-ba1d-c1e696ca3040}, ! Handle
  MAT-CC05 4 HW CONCRETE,                 ! Name
  Rough,                                  ! Roughness
  0.1016,                                 ! Thickness {m}
  1.311,                                  ! Conductivity {W/m-K}
  2240,                                   ! Density {kg/m3}
  836.8,                                  ! Specific Heat {J/kg-K}
  0.9,                                    ! Thermal Absorptance
  0.7,                                    ! Solar Absorptance
  0.7;                                    ! Visible Absorptance

OS:ComponentCost:LineItem,
  {3283b806-dd75-4287-bf40-a74ba3554097}, ! Handle
  189.1-2009 Nonres 6B Ext Slab Unheated - 4in Slab without Carpet, ! Name
  ,                                       ! Type
  Construction,                           ! Line Item Type
  189.1-2009 Nonres 6B Ext Slab Unheated - 4in Slab without Carpet, ! Item Name
  ,                                       ! Object End Use Key
  ,                                       ! Quantity {dimensionless}
  45.52,                                  ! Material Cost {$}
  CostPerArea;                            ! Material Cost Units

