
OS:Version,
  {08ed7647-0ca5-4810-b90d-0ae7617fbb28}, ! Handle
  0.9.3;                                  ! Version Identifier

OS:Construction,
  {b9c2dca8-2ca8-4e94-851a-5e702b286891}, ! Handle
  189.1-2009 Nonres 6B Ext Slab Unheated - 4in Slab without Carpet, ! Name
  ,                                       ! Surface Rendering Name
  {50f05255-9dda-4823-ac84-72615a95898c}; ! Layer 1

OS:Material,
  {50f05255-9dda-4823-ac84-72615a95898c}, ! Handle
  MAT-CC05 4 HW CONCRETE,                 ! Name
  Rough,                                  ! Roughness
  0.1016,                                 ! Thickness {m}
  1.311,                                  ! Conductivity {W/m-K}
  2240,                                   ! Density {kg/m3}
  836.8,                                  ! Specific Heat {J/kg-K}
  0.9,                                    ! Thermal Absorptance
  0.7,                                    ! Solar Absorptance
  0.7;                                    ! Visible Absorptance

OS:ComponentCost:LineItem,
  {9131b392-8a10-4da9-a527-4a9756021ca5}, ! Handle
  189.1-2009 Nonres 6B Ext Slab Unheated - 4in Slab without Carpet, ! Name
  ,                                       ! Type
  Construction,                           ! Line Item Type
  189.1-2009 Nonres 6B Ext Slab Unheated - 4in Slab without Carpet, ! Item Name
  ,                                       ! Object End Use Key
  ,                                       ! Quantity {dimensionless}
  45.52,                                  ! Material Cost {$}
  CostPerArea;                            ! Material Cost Units

OS:ComponentData,
  {85b8fc5e-cd57-462d-ad6e-b25dd01c2d15}, ! Handle
  Component Data 1,                       ! Name
  {c48cddcb-937a-4a71-bb8e-cde1415a6e76}, ! UUID
  {cec5ad94-2a6f-45be-860e-c11ef171ce83}, ! Version UUID
  1363980948,                             ! Creation Timestamp
  1363980948,                             ! Version Timestamp
  {b9c2dca8-2ca8-4e94-851a-5e702b286891}, ! Name of Object 1
  {50f05255-9dda-4823-ac84-72615a95898c}, ! Name of Object 2
  {9131b392-8a10-4da9-a527-4a9756021ca5}; ! Name of Object 3

