
OS:Version,
  {468f214c-3c82-474a-96ee-4cbfc09e5979}, ! Handle
  0.9.3;                                  ! Version Identifier

OS:ComponentCost:LineItem,
  {f6b52c1b-b953-46f6-869b-0905444d9379}, ! Handle
  90.1 Windows Window Fixed 1505 Vnl-GrnMpr, ! Name
  ,                                       ! Type
  Construction,                           ! Line Item Type
  90.1 Windows Window Fixed 1505 Vnl-GrnMpr, ! Item Name
  ,                                       ! Object End Use Key
  ,                                       ! Quantity {dimensionless}
  0,                                      ! Material Cost {$}
  CostPerArea;                            ! Material Cost Units

OS:Construction,
  {3b88c644-0579-4359-ad0c-6df5c680b458}, ! Handle
  90.1 Windows Window Fixed 1505 Vnl-GrnMpr, ! Name
  ,                                       ! Surface Rendering Name
  {afd9322a-9ca2-4bf2-bce8-60ae8c1cd599}; ! Layer 1

OS:WindowMaterial:Glazing,
  {afd9322a-9ca2-4bf2-bce8-60ae8c1cd599}, ! Handle
  Theoretical Glass [388],                ! Name
  SpectralAverage,                        ! Optical Data Type
  ,                                       ! Window Glass Spectral Data Set Name
  0.003,                                  ! Thickness {m}
  0.358138,                               ! Solar Transmittance at Normal Incidence
  0.591862,                               ! Front Side Solar Reflectance at Normal Incidence
  0.591862,                               ! Back Side Solar Reflectance at Normal Incidence
  0.370537,                               ! Visible Transmittance at Normal Incidence
  0.579463,                               ! Front Side Visible Reflectance at Normal Incidence
  0.579463,                               ! Back Side Visible Reflectance at Normal Incidence
  0,                                      ! Infrared Transmittance at Normal Incidence
  0.9,                                    ! Front Side Infrared Hemispherical Emissivity
  0.9,                                    ! Back Side Infrared Hemispherical Emissivity
  0.14759;                                ! Conductivity {W/m-K}

