
OS:Version,
  {70163dc9-136b-494b-9577-7226746c18f6}, ! Handle
  0.9.3;                                  ! Version Identifier

OS:Material,
  {f467b06b-068a-4ff8-bfe5-d9a5d33a291f}, ! Handle
  Metal Roofing,                          ! Name
  MediumSmooth,                           ! Roughness
  0.001524,                               ! Thickness {m}
  45.006,                                 ! Conductivity {W/m-K}
  7680,                                   ! Density {kg/m3}
  418.4,                                  ! Specific Heat {J/kg-K}
  0.9,                                    ! Thermal Absorptance
  0.7,                                    ! Solar Absorptance
  0.3;                                    ! Visible Absorptance

OS:ComponentCost:LineItem,
  {bca932b7-32cf-47f8-b20b-36d1ffc6d700}, ! Handle
  90.1-2001 Res B20 Roof Metal Building,  ! Name
  ,                                       ! Type
  Construction,                           ! Line Item Type
  90.1-2001 Res B20 Roof Metal Building,  ! Item Name
  ,                                       ! Object End Use Key
  ,                                       ! Quantity {dimensionless}
  38.206,                                 ! Material Cost {$}
  CostPerArea;                            ! Material Cost Units

OS:Material,
  {2e38e5cf-2c7c-4925-81db-87cd63013247}, ! Handle
  Roof Insulation [1],                    ! Name
  MediumRough,                            ! Roughness
  0.123533,                               ! Thickness {m}
  0.049,                                  ! Conductivity {W/m-K}
  265,                                    ! Density {kg/m3}
  836.8,                                  ! Specific Heat {J/kg-K}
  0.9,                                    ! Thermal Absorptance
  0.7,                                    ! Solar Absorptance
  0.7;                                    ! Visible Absorptance

OS:Construction,
  {45507589-aeff-44da-b747-4219f068db4e}, ! Handle
  90.1-2001 Res B20 Roof Metal Building,  ! Name
  ,                                       ! Surface Rendering Name
  {f467b06b-068a-4ff8-bfe5-d9a5d33a291f}, ! Layer 1
  {2e38e5cf-2c7c-4925-81db-87cd63013247}; ! Layer 2

