
OS:Version,
  {d60793b1-3c7e-4305-ae1b-bcb216d85e3f}, ! Handle
  0.9.3;                                  ! Version Identifier

OS:ComponentCost:LineItem,
  {e82ba653-d2c1-42ce-8e5c-4a513dab3f6b}, ! Handle
  90.1-2001 Res B7 Int Wall,              ! Name
  ,                                       ! Type
  Construction,                           ! Line Item Type
  90.1-2001 Res B7 Int Wall,              ! Item Name
  ,                                       ! Object End Use Key
  ,                                       ! Quantity {dimensionless}
  0,                                      ! Material Cost {$}
  CostPerArea;                            ! Material Cost Units

OS:Material,
  {9ad31ef6-3225-4b26-ad15-7837cf4626aa}, ! Handle
  GP01 1/2 GYPSUM 1,                      ! Name
  Smooth,                                 ! Roughness
  0.01271,                                ! Thickness {m}
  0.16,                                   ! Conductivity {W/m-K}
  800,                                    ! Density {kg/m3}
  1090,                                   ! Specific Heat {J/kg-K}
  0.9,                                    ! Thermal Absorptance
  0.7,                                    ! Solar Absorptance
  0.5;                                    ! Visible Absorptance

OS:Construction,
  {8a81e913-57cc-4e33-9199-6cd3aade57ce}, ! Handle
  90.1-2001 Res B7 Int Wall,              ! Name
  ,                                       ! Surface Rendering Name
  {cf26d0e7-3b6c-4bed-953a-dc0cd3c71e8f}, ! Layer 1
  {cf26d0e7-3b6c-4bed-953a-dc0cd3c71e8f}; ! Layer 2

OS:Material,
  {cf26d0e7-3b6c-4bed-953a-dc0cd3c71e8f}, ! Handle
  GP01 1/2 GYPSUM,                        ! Name
  Smooth,                                 ! Roughness
  0.01271,                                ! Thickness {m}
  0.16,                                   ! Conductivity {W/m-K}
  800,                                    ! Density {kg/m3}
  1090,                                   ! Specific Heat {J/kg-K}
  0.9,                                    ! Thermal Absorptance
  0.7,                                    ! Solar Absorptance
  0.5;                                    ! Visible Absorptance

