
OS:Version,
  {8ba7c2a8-d90d-4026-a117-50344b1bcb7b}, !- Handle
  1.0.6;                                  !- Version Identifier

OS:WindowMaterial:Glazing,
  {2f78e3a2-4241-4661-888e-b28ac72eb200}, !- Handle
  189.1-2011 NONRES 5B METAL FRAMING CURTAINWALL-STOREFRONT THEORETICAL GLAZING, !- Name
  SpectralAverage,                        !- Optical Data Type
  ,                                       !- Window Glass Spectral Data Set Name
  0.03746,                                !- Thickness {m}
  0.26293,                                !- Solar Transmittance at Normal Incidence
  0.53069,                                !- Front Side Solar Reflectance at Normal Incidence
  0.53069,                                !- Back Side Solar Reflectance at Normal Incidence
  0.26293,                                !- Visible Transmittance at Normal Incidence
  0.53069,                                !- Front Side Visible Reflectance at Normal Incidence
  0.53069,                                !- Back Side Visible Reflectance at Normal Incidence
  0,                                      !- Infrared Transmittance at Normal Incidence
  0.84,                                   !- Front Side Infrared Hemispherical Emissivity
  0.84,                                   !- Back Side Infrared Hemispherical Emissivity
  0.11374,                                !- Conductivity {W/m-K}
  1,                                      !- Dirt Correction Factor for Solar and Visible Transmittance
  No;                                     !- Solar Diffusing

OS:Construction,
  {aa640e2c-566e-450a-a121-6dc7d3cdec83}, !- Handle
  189.1-2011 NONRES 5B METAL FRAMING CURTAINWALL-STOREFRONT, !- Name
  ,                                       !- Surface Rendering Name
  {2f78e3a2-4241-4661-888e-b28ac72eb200}; !- Layer 1

