
OS:Version,
  {3c08488e-3568-4d5e-a172-7712cbad1650}, ! Handle
  0.9.3;                                  ! Version Identifier

OS:Construction,
  {9ad20ccf-b703-429e-b7e9-bf8db7091e79}, ! Handle
  90.1 Windows Window Fixed 2423 Brk-Hpt-Ins-ClrPye, ! Name
  ,                                       ! Surface Rendering Name
  {9402dda5-9ab0-4b02-b0cf-8e1b97e2015a}; ! Layer 1

OS:WindowMaterial:Glazing,
  {9402dda5-9ab0-4b02-b0cf-8e1b97e2015a}, ! Handle
  Theoretical Glass [410],                ! Name
  SpectralAverage,                        ! Optical Data Type
  ,                                       ! Window Glass Spectral Data Set Name
  0.003,                                  ! Thickness {m}
  0.344373,                               ! Solar Transmittance at Normal Incidence
  0.605627,                               ! Front Side Solar Reflectance at Normal Incidence
  0.605627,                               ! Back Side Solar Reflectance at Normal Incidence
  0.500108,                               ! Visible Transmittance at Normal Incidence
  0.449892,                               ! Front Side Visible Reflectance at Normal Incidence
  0.449892,                               ! Back Side Visible Reflectance at Normal Incidence
  0,                                      ! Infrared Transmittance at Normal Incidence
  0.9,                                    ! Front Side Infrared Hemispherical Emissivity
  0.9,                                    ! Back Side Infrared Hemispherical Emissivity
  0.0129976;                              ! Conductivity {W/m-K}

OS:ComponentCost:LineItem,
  {aeb51e7b-b0ca-4491-a97b-8c21297d5d5c}, ! Handle
  90.1 Windows Window Fixed 2423 Brk-Hpt-Ins-ClrPye, ! Name
  ,                                       ! Type
  Construction,                           ! Line Item Type
  90.1 Windows Window Fixed 2423 Brk-Hpt-Ins-ClrPye, ! Item Name
  ,                                       ! Object End Use Key
  ,                                       ! Quantity {dimensionless}
  0,                                      ! Material Cost {$}
  CostPerArea;                            ! Material Cost Units

