
OS:Version,
  {a7b331e8-e1d2-4e61-ae99-80198a310a79}, ! Handle
  0.9.3;                                  ! Version Identifier

OS:Construction,
  {f78e052f-d67c-4f53-9285-d63b38587550}, ! Handle
  90.1 Windows Window Fixed 2423 Brk-Hpt-Ins-ClrPye, ! Name
  ,                                       ! Surface Rendering Name
  {77e2fd32-f347-47ec-8466-eaad697172e0}; ! Layer 1

OS:WindowMaterial:Glazing,
  {77e2fd32-f347-47ec-8466-eaad697172e0}, ! Handle
  Theoretical Glass [410],                ! Name
  SpectralAverage,                        ! Optical Data Type
  ,                                       ! Window Glass Spectral Data Set Name
  0.003,                                  ! Thickness {m}
  0.344373,                               ! Solar Transmittance at Normal Incidence
  0.605627,                               ! Front Side Solar Reflectance at Normal Incidence
  0.605627,                               ! Back Side Solar Reflectance at Normal Incidence
  0.500108,                               ! Visible Transmittance at Normal Incidence
  0.449892,                               ! Front Side Visible Reflectance at Normal Incidence
  0.449892,                               ! Back Side Visible Reflectance at Normal Incidence
  0,                                      ! Infrared Transmittance at Normal Incidence
  0.9,                                    ! Front Side Infrared Hemispherical Emissivity
  0.9,                                    ! Back Side Infrared Hemispherical Emissivity
  0.0129976;                              ! Conductivity {W/m-K}

OS:ComponentCost:LineItem,
  {e1820258-de57-4b49-a957-8d7ccd8b2c18}, ! Handle
  90.1 Windows Window Fixed 2423 Brk-Hpt-Ins-ClrPye, ! Name
  ,                                       ! Type
  Construction,                           ! Line Item Type
  90.1 Windows Window Fixed 2423 Brk-Hpt-Ins-ClrPye, ! Item Name
  ,                                       ! Object End Use Key
  ,                                       ! Quantity {dimensionless}
  0,                                      ! Material Cost {$}
  CostPerArea;                            ! Material Cost Units

OS:ComponentData,
  {be90bda6-29e3-42da-bc28-ad562ce072dc}, ! Handle
  Component Data 1,                       ! Name
  {30778637-dbb8-44cb-94b5-eb04b13e8401}, ! UUID
  {a24d5832-b31e-4761-8318-858bbaada1db}, ! Version UUID
  1363981015,                             ! Creation Timestamp
  1363981015,                             ! Version Timestamp
  {f78e052f-d67c-4f53-9285-d63b38587550}, ! Name of Object 1
  {77e2fd32-f347-47ec-8466-eaad697172e0}, ! Name of Object 2
  {e1820258-de57-4b49-a957-8d7ccd8b2c18}; ! Name of Object 3

