
OS:Version,
  {d8113724-bf8f-4503-8cfb-85dcaf679ad9}, ! Handle
  0.9.3;                                  ! Version Identifier

OS:Material,
  {f346d713-963e-414a-8ee6-be9d9e781a64}, ! Handle
  Roof Insulation [6],                    ! Name
  MediumRough,                            ! Roughness
  0.147675,                               ! Thickness {m}
  0.049,                                  ! Conductivity {W/m-K}
  265,                                    ! Density {kg/m3}
  836.8,                                  ! Specific Heat {J/kg-K}
  0.9,                                    ! Thermal Absorptance
  0.7,                                    ! Solar Absorptance
  0.7;                                    ! Visible Absorptance

OS:Construction,
  {cf273f5a-a23f-46aa-8ca7-046d776c29e1}, ! Handle
  90.1-1999 Res B23 Roof Metal Building,  ! Name
  ,                                       ! Surface Rendering Name
  {4f649e82-c900-4908-9635-6022bde89bf2}, ! Layer 1
  {f346d713-963e-414a-8ee6-be9d9e781a64}; ! Layer 2

OS:Material,
  {4f649e82-c900-4908-9635-6022bde89bf2}, ! Handle
  Metal Roofing,                          ! Name
  MediumSmooth,                           ! Roughness
  0.001524,                               ! Thickness {m}
  45.006,                                 ! Conductivity {W/m-K}
  7680,                                   ! Density {kg/m3}
  418.4,                                  ! Specific Heat {J/kg-K}
  0.9,                                    ! Thermal Absorptance
  0.7,                                    ! Solar Absorptance
  0.3;                                    ! Visible Absorptance

OS:ComponentCost:LineItem,
  {8ec09849-fd51-4951-8ad6-012ec9663d3d}, ! Handle
  90.1-1999 Res B23 Roof Metal Building,  ! Name
  ,                                       ! Type
  Construction,                           ! Line Item Type
  90.1-1999 Res B23 Roof Metal Building,  ! Item Name
  ,                                       ! Object End Use Key
  ,                                       ! Quantity {dimensionless}
  40.571,                                 ! Material Cost {$}
  CostPerArea;                            ! Material Cost Units

