
OS:Version,
  {696ebe5c-b0b6-4c7d-a78a-8170c7b7f361}, ! Handle
  0.9.3;                                  ! Version Identifier

OS:Material,
  {b52bde8a-401c-498f-b310-a85ce5dfae9d}, ! Handle
  Wood Shingles,                          ! Name
  VeryRough,                              ! Roughness
  0.0178,                                 ! Thickness {m}
  0.115,                                  ! Conductivity {W/m-K}
  513,                                    ! Density {kg/m3}
  1255,                                   ! Specific Heat {J/kg-K}
  0.9,                                    ! Thermal Absorptance
  0.78,                                   ! Solar Absorptance
  0.78;                                   ! Visible Absorptance

OS:Construction,
  {f21df429-af60-456c-a751-e68c8864ebbd}, ! Handle
  90.1-1999 Nonres B9 Roof Attic and Other, ! Name
  ,                                       ! Surface Rendering Name
  {b52bde8a-401c-498f-b310-a85ce5dfae9d}, ! Layer 1
  {03786c54-5064-4b6d-9eb8-1b67ba72bcf8}, ! Layer 2
  {8f11af93-1ac7-4071-94d2-846c00bdf05d}, ! Layer 3
  {1a6db27d-1ec9-41c3-803f-36732d89d626}; ! Layer 4

OS:Material,
  {03786c54-5064-4b6d-9eb8-1b67ba72bcf8}, ! Handle
  1IN Wood Decking,                       ! Name
  MediumSmooth,                           ! Roughness
  0.0254,                                 ! Thickness {m}
  0.1211,                                 ! Conductivity {W/m-K}
  593,                                    ! Density {kg/m3}
  2510,                                   ! Specific Heat {J/kg-K}
  0.9,                                    ! Thermal Absorptance
  0.78,                                   ! Solar Absorptance
  0.78;                                   ! Visible Absorptance

OS:Material,
  {8f11af93-1ac7-4071-94d2-846c00bdf05d}, ! Handle
  Roof Insulation [2],                    ! Name
  MediumRough,                            ! Roughness
  0.221604,                               ! Thickness {m}
  0.049,                                  ! Conductivity {W/m-K}
  265,                                    ! Density {kg/m3}
  836.8,                                  ! Specific Heat {J/kg-K}
  0.9,                                    ! Thermal Absorptance
  0.7,                                    ! Solar Absorptance
  0.7;                                    ! Visible Absorptance

OS:Material,
  {1a6db27d-1ec9-41c3-803f-36732d89d626}, ! Handle
  1/2IN Gypsum,                           ! Name
  Smooth,                                 ! Roughness
  0.01271,                                ! Thickness {m}
  0.16,                                   ! Conductivity {W/m-K}
  784.9,                                  ! Density {kg/m3}
  830,                                    ! Specific Heat {J/kg-K}
  0.9,                                    ! Thermal Absorptance
  0.92,                                   ! Solar Absorptance
  0.92;                                   ! Visible Absorptance

OS:ComponentCost:LineItem,
  {0c04224f-f2c0-4648-b21f-7fe1563f481f}, ! Handle
  90.1-1999 Nonres B9 Roof Attic and Other, ! Name
  ,                                       ! Type
  Construction,                           ! Line Item Type
  90.1-1999 Nonres B9 Roof Attic and Other, ! Item Name
  ,                                       ! Object End Use Key
  ,                                       ! Quantity {dimensionless}
  33.39,                                  ! Material Cost {$}
  CostPerArea;                            ! Material Cost Units

