
OS:Version,
  {97b37d06-b7b2-4f3a-8e18-3995b7478a1a}, ! Handle
  0.9.3;                                  ! Version Identifier

OS:Construction,
  {51c043a2-3b01-44d7-9634-eac762ecbe3c}, ! Handle
  90.1-1999 Nonres B9 Roof Attic and Other, ! Name
  ,                                       ! Surface Rendering Name
  {f8625b44-cfc0-457d-a790-128a630e26b8}, ! Layer 1
  {69978826-c7ab-4b3e-b203-486a4edc0d1c}, ! Layer 2
  {e0d7de1f-25ca-451d-8b5f-bf664e0d9563}, ! Layer 3
  {3f1202ca-7425-475a-b19a-a1fabf936259}; ! Layer 4

OS:Material,
  {f8625b44-cfc0-457d-a790-128a630e26b8}, ! Handle
  Wood Shingles,                          ! Name
  VeryRough,                              ! Roughness
  0.0178,                                 ! Thickness {m}
  0.115,                                  ! Conductivity {W/m-K}
  513,                                    ! Density {kg/m3}
  1255,                                   ! Specific Heat {J/kg-K}
  0.9,                                    ! Thermal Absorptance
  0.78,                                   ! Solar Absorptance
  0.78;                                   ! Visible Absorptance

OS:Material,
  {69978826-c7ab-4b3e-b203-486a4edc0d1c}, ! Handle
  1IN Wood Decking,                       ! Name
  MediumSmooth,                           ! Roughness
  0.0254,                                 ! Thickness {m}
  0.1211,                                 ! Conductivity {W/m-K}
  593,                                    ! Density {kg/m3}
  2510,                                   ! Specific Heat {J/kg-K}
  0.9,                                    ! Thermal Absorptance
  0.78,                                   ! Solar Absorptance
  0.78;                                   ! Visible Absorptance

OS:Material,
  {e0d7de1f-25ca-451d-8b5f-bf664e0d9563}, ! Handle
  Roof Insulation [2],                    ! Name
  MediumRough,                            ! Roughness
  0.221604,                               ! Thickness {m}
  0.049,                                  ! Conductivity {W/m-K}
  265,                                    ! Density {kg/m3}
  836.8,                                  ! Specific Heat {J/kg-K}
  0.9,                                    ! Thermal Absorptance
  0.7,                                    ! Solar Absorptance
  0.7;                                    ! Visible Absorptance

OS:Material,
  {3f1202ca-7425-475a-b19a-a1fabf936259}, ! Handle
  1/2IN Gypsum,                           ! Name
  Smooth,                                 ! Roughness
  0.01271,                                ! Thickness {m}
  0.16,                                   ! Conductivity {W/m-K}
  784.9,                                  ! Density {kg/m3}
  830,                                    ! Specific Heat {J/kg-K}
  0.9,                                    ! Thermal Absorptance
  0.92,                                   ! Solar Absorptance
  0.92;                                   ! Visible Absorptance

OS:ComponentCost:LineItem,
  {130ac481-dd55-4132-a7bd-ffdbd701f8e3}, ! Handle
  90.1-1999 Nonres B9 Roof Attic and Other, ! Name
  ,                                       ! Type
  Construction,                           ! Line Item Type
  90.1-1999 Nonres B9 Roof Attic and Other, ! Item Name
  ,                                       ! Object End Use Key
  ,                                       ! Quantity {dimensionless}
  33.39,                                  ! Material Cost {$}
  CostPerArea;                            ! Material Cost Units

OS:ComponentData,
  {a61cd13d-3e41-4f3a-905b-5c34b9d780aa}, ! Handle
  Component Data 1,                       ! Name
  {cbcd2871-60cc-4cc1-907e-a79e07bc8bf7}, ! UUID
  {3db9b834-e820-4501-94d1-a9414ed6d231}, ! Version UUID
  1363981076,                             ! Creation Timestamp
  1363981076,                             ! Version Timestamp
  {51c043a2-3b01-44d7-9634-eac762ecbe3c}, ! Name of Object 1
  {f8625b44-cfc0-457d-a790-128a630e26b8}, ! Name of Object 2
  {69978826-c7ab-4b3e-b203-486a4edc0d1c}, ! Name of Object 3
  {e0d7de1f-25ca-451d-8b5f-bf664e0d9563}, ! Name of Object 4
  {3f1202ca-7425-475a-b19a-a1fabf936259}, ! Name of Object 5
  {130ac481-dd55-4132-a7bd-ffdbd701f8e3}; ! Name of Object 6

