
OS:Version,
  {0274dbe3-374f-423f-bb13-3948051459fe}, ! Handle
  0.9.3;                                  ! Version Identifier

OS:Construction,
  {c0f4bee3-5568-4637-9557-2cc01fff2827}, ! Handle
  Title 24-2008 Nonres 7 Skylight Plastic Skylight with Curb, ! Name
  ,                                       ! Surface Rendering Name
  {75f8c2dd-8b9f-4dcd-99e7-80d0cd908058}; ! Layer 1

OS:WindowMaterial:Glazing,
  {75f8c2dd-8b9f-4dcd-99e7-80d0cd908058}, ! Handle
  Theoretical Glass [674],                ! Name
  SpectralAverage,                        ! Optical Data Type
  ,                                       ! Window Glass Spectral Data Set Name
  0.003,                                  ! Thickness {m}
  0.676633,                               ! Solar Transmittance at Normal Incidence
  0.273367,                               ! Front Side Solar Reflectance at Normal Incidence
  0.273367,                               ! Back Side Solar Reflectance at Normal Incidence
  0.689609,                               ! Visible Transmittance at Normal Incidence
  0.260391,                               ! Front Side Visible Reflectance at Normal Incidence
  0.260391,                               ! Back Side Visible Reflectance at Normal Incidence
  0,                                      ! Infrared Transmittance at Normal Incidence
  0.91,                                   ! Front Side Infrared Hemispherical Emissivity
  0.91,                                   ! Back Side Infrared Hemispherical Emissivity
  0.387053;                               ! Conductivity {W/m-K}

OS:ComponentCost:LineItem,
  {e52dd37c-047b-47cf-b929-3633340c13fd}, ! Handle
  Title 24-2008 Nonres 7 Skylight Plastic Skylight with Curb, ! Name
  ,                                       ! Type
  Construction,                           ! Line Item Type
  Title 24-2008 Nonres 7 Skylight Plastic Skylight with Curb, ! Item Name
  ,                                       ! Object End Use Key
  ,                                       ! Quantity {dimensionless}
  480.601,                                ! Material Cost {$}
  CostPerArea;                            ! Material Cost Units

