
OS:Version,
  {2daeaaaf-c3c2-4dbe-b5e3-a2c475c2ebf2}, ! Handle
  0.9.3;                                  ! Version Identifier

OS:Construction,
  {d2ae4f03-6d20-43ec-8067-df2c5b29e4c0}, ! Handle
  90.1-1999 Res B10 Ext Slab Unheated - 4in Slab without Carpet, ! Name
  ,                                       ! Surface Rendering Name
  {0110bbf7-5ed2-43a7-bf99-dc75ab5ffd34}; ! Layer 1

OS:Material,
  {0110bbf7-5ed2-43a7-bf99-dc75ab5ffd34}, ! Handle
  MAT-CC05 4 HW CONCRETE,                 ! Name
  Rough,                                  ! Roughness
  0.1016,                                 ! Thickness {m}
  1.311,                                  ! Conductivity {W/m-K}
  2240,                                   ! Density {kg/m3}
  836.8,                                  ! Specific Heat {J/kg-K}
  0.9,                                    ! Thermal Absorptance
  0.7,                                    ! Solar Absorptance
  0.7;                                    ! Visible Absorptance

OS:ComponentCost:LineItem,
  {8736c09e-8114-48c9-b9f2-4ad6f6606eec}, ! Handle
  90.1-1999 Res B10 Ext Slab Unheated - 4in Slab without Carpet, ! Name
  ,                                       ! Type
  Construction,                           ! Line Item Type
  90.1-1999 Res B10 Ext Slab Unheated - 4in Slab without Carpet, ! Item Name
  ,                                       ! Object End Use Key
  ,                                       ! Quantity {dimensionless}
  45.52,                                  ! Material Cost {$}
  CostPerArea;                            ! Material Cost Units

