
OS:Version,
  {01c537be-b0f8-4e2b-a037-de66300953b9}, ! Handle
  0.9.3;                                  ! Version Identifier

OS:ComponentCost:LineItem,
  {363d7979-37b3-4020-aa12-27d72dcb9720}, ! Handle
  90.1 Constructions Roof Attic and Other R-93.0, ! Name
  ,                                       ! Type
  Construction,                           ! Line Item Type
  90.1 Constructions Roof Attic and Other R-93.0, ! Item Name
  ,                                       ! Object End Use Key
  ,                                       ! Quantity {dimensionless}
  43.581,                                 ! Material Cost {$}
  CostPerArea;                            ! Material Cost Units

OS:Material,
  {b7a73612-bb2f-40e6-956c-26dc2551d427}, ! Handle
  Wood Shingles,                          ! Name
  VeryRough,                              ! Roughness
  0.0178,                                 ! Thickness {m}
  0.115,                                  ! Conductivity {W/m-K}
  513,                                    ! Density {kg/m3}
  1255,                                   ! Specific Heat {J/kg-K}
  0.9,                                    ! Thermal Absorptance
  0.78,                                   ! Solar Absorptance
  0.78;                                   ! Visible Absorptance

OS:Material,
  {bfe44fca-448c-49b0-808c-f17b4ba44625}, ! Handle
  Roof Insulation [87],                   ! Name
  MediumRough,                            ! Roughness
  0.736649,                               ! Thickness {m}
  0.049,                                  ! Conductivity {W/m-K}
  265,                                    ! Density {kg/m3}
  836.8,                                  ! Specific Heat {J/kg-K}
  0.9,                                    ! Thermal Absorptance
  0.7,                                    ! Solar Absorptance
  0.7;                                    ! Visible Absorptance

OS:Material,
  {b58af4ed-80ec-4ab9-8d1f-f247e7b5d033}, ! Handle
  1/2IN Gypsum,                           ! Name
  Smooth,                                 ! Roughness
  0.01271,                                ! Thickness {m}
  0.16,                                   ! Conductivity {W/m-K}
  784.9,                                  ! Density {kg/m3}
  830,                                    ! Specific Heat {J/kg-K}
  0.9,                                    ! Thermal Absorptance
  0.92,                                   ! Solar Absorptance
  0.92;                                   ! Visible Absorptance

OS:Material,
  {ab42ce3d-c3c5-495a-8599-bde85cfbc001}, ! Handle
  1IN Wood Decking,                       ! Name
  MediumSmooth,                           ! Roughness
  0.0254,                                 ! Thickness {m}
  0.1211,                                 ! Conductivity {W/m-K}
  593,                                    ! Density {kg/m3}
  2510,                                   ! Specific Heat {J/kg-K}
  0.9,                                    ! Thermal Absorptance
  0.78,                                   ! Solar Absorptance
  0.78;                                   ! Visible Absorptance

OS:Construction,
  {7601a78e-b1a3-4196-8b07-b4ceb609b20a}, ! Handle
  90.1 Constructions Roof Attic and Other R-93.0, ! Name
  ,                                       ! Surface Rendering Name
  {b7a73612-bb2f-40e6-956c-26dc2551d427}, ! Layer 1
  {ab42ce3d-c3c5-495a-8599-bde85cfbc001}, ! Layer 2
  {bfe44fca-448c-49b0-808c-f17b4ba44625}, ! Layer 3
  {b58af4ed-80ec-4ab9-8d1f-f247e7b5d033}; ! Layer 4

