
OS:Version,
  {19367122-8e1d-4d21-ae2b-b6c9f3dd50c9}, ! Handle
  0.9.3;                                  ! Version Identifier

OS:Material,
  {a1506366-2672-4d0d-b1c9-b69798bb1aa3}, ! Handle
  1/2IN Gypsum,                           ! Name
  Smooth,                                 ! Roughness
  0.01271,                                ! Thickness {m}
  0.16,                                   ! Conductivity {W/m-K}
  784.9,                                  ! Density {kg/m3}
  830,                                    ! Specific Heat {J/kg-K}
  0.9,                                    ! Thermal Absorptance
  0.92,                                   ! Solar Absorptance
  0.92;                                   ! Visible Absorptance

OS:Material,
  {02b2c369-4fb8-4096-ba0d-970220ab8abc}, ! Handle
  Metal Siding,                           ! Name
  Smooth,                                 ! Roughness
  0.0015,                                 ! Thickness {m}
  44.96,                                  ! Conductivity {W/m-K}
  7688.86,                                ! Density {kg/m3}
  410,                                    ! Specific Heat {J/kg-K}
  0.9,                                    ! Thermal Absorptance
  0.2,                                    ! Solar Absorptance
  0.2;                                    ! Visible Absorptance

OS:ComponentCost:LineItem,
  {326dbe17-8ea9-4312-bda6-0ba2026c7705}, ! Handle
  90.1-2001 Res B11 Ext Wall Metal Building, ! Name
  ,                                       ! Type
  Construction,                           ! Line Item Type
  90.1-2001 Res B11 Ext Wall Metal Building, ! Item Name
  ,                                       ! Object End Use Key
  ,                                       ! Quantity {dimensionless}
  98.78,                                  ! Material Cost {$}
  CostPerArea;                            ! Material Cost Units

OS:Construction,
  {a1248ef5-e5bc-4b7d-8a70-5964b73bfb83}, ! Handle
  90.1-2001 Res B11 Ext Wall Metal Building, ! Name
  ,                                       ! Surface Rendering Name
  {02b2c369-4fb8-4096-ba0d-970220ab8abc}, ! Layer 1
  {acb54b1f-720b-40d1-ac6b-7c02e8a691bd}, ! Layer 2
  {a1506366-2672-4d0d-b1c9-b69798bb1aa3}; ! Layer 3

OS:Material,
  {acb54b1f-720b-40d1-ac6b-7c02e8a691bd}, ! Handle
  Wall Insulation,                        ! Name
  MediumRough,                            ! Roughness
  0.0598725,                              ! Thickness {m}
  0.045,                                  ! Conductivity {W/m-K}
  265,                                    ! Density {kg/m3}
  836.8,                                  ! Specific Heat {J/kg-K}
  0.9,                                    ! Thermal Absorptance
  0.7,                                    ! Solar Absorptance
  0.7;                                    ! Visible Absorptance

