
OS:Version,
  {82f55d6a-dea6-4775-ae1c-04e312072ea0}, ! Handle
  0.9.3;                                  ! Version Identifier

OS:WindowMaterial:Glazing,
  {2dc77842-59f6-4d72-827b-01a29c764ecb}, ! Handle
  Theoretical Glass [562],                ! Name
  SpectralAverage,                        ! Optical Data Type
  ,                                       ! Window Glass Spectral Data Set Name
  0.003,                                  ! Thickness {m}
  0.128504,                               ! Solar Transmittance at Normal Incidence
  0.821496,                               ! Front Side Solar Reflectance at Normal Incidence
  0.821496,                               ! Back Side Solar Reflectance at Normal Incidence
  0.171715,                               ! Visible Transmittance at Normal Incidence
  0.778285,                               ! Front Side Visible Reflectance at Normal Incidence
  0.778285,                               ! Back Side Visible Reflectance at Normal Incidence
  0,                                      ! Infrared Transmittance at Normal Incidence
  0.9,                                    ! Front Side Infrared Hemispherical Emissivity
  0.9,                                    ! Back Side Infrared Hemispherical Emissivity
  0.00529619;                             ! Conductivity {W/m-K}

OS:ComponentCost:LineItem,
  {23638b3d-d1ef-424d-b298-9e321b1c136a}, ! Handle
  90.1 Windows Window Fixed 3621 Vnl-Clr-Ins-V22-Ins-Clr, ! Name
  ,                                       ! Type
  Construction,                           ! Line Item Type
  90.1 Windows Window Fixed 3621 Vnl-Clr-Ins-V22-Ins-Clr, ! Item Name
  ,                                       ! Object End Use Key
  ,                                       ! Quantity {dimensionless}
  0,                                      ! Material Cost {$}
  CostPerArea;                            ! Material Cost Units

OS:Construction,
  {35bb9331-59e7-4eaf-9cfe-1a258675a1e2}, ! Handle
  90.1 Windows Window Fixed 3621 Vnl-Clr-Ins-V22-Ins-Clr, ! Name
  ,                                       ! Surface Rendering Name
  {2dc77842-59f6-4d72-827b-01a29c764ecb}; ! Layer 1

