
OS:Version,
  {85a859f9-1e04-4fec-b6db-efd4cbf47c86}, ! Handle
  0.9.3;                                  ! Version Identifier

OS:Construction,
  {9eac0e56-b0ae-42e1-a5f9-b68d1e6ce5d6}, ! Handle
  90.1-1999 Nonres B13 Window Fixed,      ! Name
  ,                                       ! Surface Rendering Name
  {93036daf-a13e-4033-862d-7c4248c4001e}; ! Layer 1

OS:WindowMaterial:Glazing,
  {93036daf-a13e-4033-862d-7c4248c4001e}, ! Handle
  Theoretical Glass [36],                 ! Name
  SpectralAverage,                        ! Optical Data Type
  ,                                       ! Window Glass Spectral Data Set Name
  0.003,                                  ! Thickness {m}
  0.354957,                               ! Solar Transmittance at Normal Incidence
  0.595043,                               ! Front Side Solar Reflectance at Normal Incidence
  0.595043,                               ! Back Side Solar Reflectance at Normal Incidence
  0.376261,                               ! Visible Transmittance at Normal Incidence
  0.573739,                               ! Front Side Visible Reflectance at Normal Incidence
  0.573739,                               ! Back Side Visible Reflectance at Normal Incidence
  0,                                      ! Infrared Transmittance at Normal Incidence
  0.9,                                    ! Front Side Infrared Hemispherical Emissivity
  0.9,                                    ! Back Side Infrared Hemispherical Emissivity
  0.0134755;                              ! Conductivity {W/m-K}

OS:ComponentCost:LineItem,
  {84dd6f90-c528-4e67-94b0-b6e7e48b2b53}, ! Handle
  90.1-1999 Nonres B13 Window Fixed,      ! Name
  ,                                       ! Type
  Construction,                           ! Line Item Type
  90.1-1999 Nonres B13 Window Fixed,      ! Item Name
  ,                                       ! Object End Use Key
  ,                                       ! Quantity {dimensionless}
  554.2,                                  ! Material Cost {$}
  CostPerArea;                            ! Material Cost Units

OS:ComponentData,
  {905b7571-2e33-48eb-be31-a10a08cd879d}, ! Handle
  Component Data 1,                       ! Name
  {33c3a155-6738-4898-aa16-c0d347a1056b}, ! UUID
  {334f6bd1-4e80-496a-ae88-fbbaec857081}, ! Version UUID
  1363981099,                             ! Creation Timestamp
  1363981099,                             ! Version Timestamp
  {9eac0e56-b0ae-42e1-a5f9-b68d1e6ce5d6}, ! Name of Object 1
  {93036daf-a13e-4033-862d-7c4248c4001e}, ! Name of Object 2
  {84dd6f90-c528-4e67-94b0-b6e7e48b2b53}; ! Name of Object 3

