
OS:Version,
  {03242f32-08c1-46ed-982b-2203a353cb4e}, ! Handle
  0.9.3;                                  ! Version Identifier

OS:ComponentCost:LineItem,
  {44b94a7f-04dc-41e5-bb40-c9988c11d904}, ! Handle
  90.1-1999 Nonres B13 Window Fixed,      ! Name
  ,                                       ! Type
  Construction,                           ! Line Item Type
  90.1-1999 Nonres B13 Window Fixed,      ! Item Name
  ,                                       ! Object End Use Key
  ,                                       ! Quantity {dimensionless}
  554.2,                                  ! Material Cost {$}
  CostPerArea;                            ! Material Cost Units

OS:Construction,
  {dda90602-6c9f-4dac-b8db-0d92e465ebd9}, ! Handle
  90.1-1999 Nonres B13 Window Fixed,      ! Name
  ,                                       ! Surface Rendering Name
  {5261cd95-65b1-4df5-adde-abbe052cc1e6}; ! Layer 1

OS:WindowMaterial:Glazing,
  {5261cd95-65b1-4df5-adde-abbe052cc1e6}, ! Handle
  Theoretical Glass [36],                 ! Name
  SpectralAverage,                        ! Optical Data Type
  ,                                       ! Window Glass Spectral Data Set Name
  0.003,                                  ! Thickness {m}
  0.354957,                               ! Solar Transmittance at Normal Incidence
  0.595043,                               ! Front Side Solar Reflectance at Normal Incidence
  0.595043,                               ! Back Side Solar Reflectance at Normal Incidence
  0.376261,                               ! Visible Transmittance at Normal Incidence
  0.573739,                               ! Front Side Visible Reflectance at Normal Incidence
  0.573739,                               ! Back Side Visible Reflectance at Normal Incidence
  0,                                      ! Infrared Transmittance at Normal Incidence
  0.9,                                    ! Front Side Infrared Hemispherical Emissivity
  0.9,                                    ! Back Side Infrared Hemispherical Emissivity
  0.0134755;                              ! Conductivity {W/m-K}

