
OS:Version,
  {83e714d0-f8e4-4953-a639-439df25cd62f}, ! Handle
  0.9.3;                                  ! Version Identifier

OS:Construction,
  {be85fc4a-d404-465b-8866-c495bbfd1003}, ! Handle
  90.1-2007 Nonres 2A Ext Wall Steel-Framed, ! Name
  ,                                       ! Surface Rendering Name
  {1f157f6b-0a31-4746-94d0-0c56dd59e6b1}, ! Layer 1
  {c5dbd610-eb03-4073-9f43-57bf9115c6e9}, ! Layer 2
  {3d269720-1db7-4d8f-b1f2-dd15a966bcd0}; ! Layer 3

OS:Material:NoMass,
  {1f157f6b-0a31-4746-94d0-0c56dd59e6b1}, ! Handle
  MAT-SHEATH,                             ! Name
  Rough,                                  ! Roughness
  0.36256,                                ! Thermal Resistance {m2-K/W}
  0.9,                                    ! Thermal Absorptance
  0.7,                                    ! Solar Absorptance
  0.7;                                    ! Visible Absorptance

OS:Material,
  {c5dbd610-eb03-4073-9f43-57bf9115c6e9}, ! Handle
  Wall Insulation [1],                    ! Name
  MediumRough,                            ! Roughness
  0.0373223,                              ! Thickness {m}
  0.045,                                  ! Conductivity {W/m-K}
  265,                                    ! Density {kg/m3}
  836.8,                                  ! Specific Heat {J/kg-K}
  0.9,                                    ! Thermal Absorptance
  0.7,                                    ! Solar Absorptance
  0.7;                                    ! Visible Absorptance

OS:Material,
  {3d269720-1db7-4d8f-b1f2-dd15a966bcd0}, ! Handle
  1/2IN Gypsum,                           ! Name
  Smooth,                                 ! Roughness
  0.01271,                                ! Thickness {m}
  0.16,                                   ! Conductivity {W/m-K}
  784.9,                                  ! Density {kg/m3}
  830,                                    ! Specific Heat {J/kg-K}
  0.9,                                    ! Thermal Absorptance
  0.92,                                   ! Solar Absorptance
  0.92;                                   ! Visible Absorptance

OS:ComponentCost:LineItem,
  {99e49d45-8ad9-49ac-82f3-cc63a6103553}, ! Handle
  90.1-2007 Nonres 2A Ext Wall Steel-Framed, ! Name
  ,                                       ! Type
  Construction,                           ! Line Item Type
  90.1-2007 Nonres 2A Ext Wall Steel-Framed, ! Item Name
  ,                                       ! Object End Use Key
  ,                                       ! Quantity {dimensionless}
  87.08,                                  ! Material Cost {$}
  CostPerArea;                            ! Material Cost Units

OS:ComponentData,
  {4381bcf2-480c-4fe3-b841-3e36e4bf1345}, ! Handle
  Component Data 1,                       ! Name
  {2a0f83a6-4101-443e-b4b5-5ca998da7450}, ! UUID
  {d8764ce5-71d8-4b5e-b08f-d5f48baa9bc6}, ! Version UUID
  1363981788,                             ! Creation Timestamp
  1363981788,                             ! Version Timestamp
  {be85fc4a-d404-465b-8866-c495bbfd1003}, ! Name of Object 1
  {1f157f6b-0a31-4746-94d0-0c56dd59e6b1}, ! Name of Object 2
  {c5dbd610-eb03-4073-9f43-57bf9115c6e9}, ! Name of Object 3
  {3d269720-1db7-4d8f-b1f2-dd15a966bcd0}, ! Name of Object 4
  {99e49d45-8ad9-49ac-82f3-cc63a6103553}; ! Name of Object 5

