
OS:Version,
  {680f6588-a00b-410b-a9a7-4b2b615a21f9}, ! Handle
  0.9.3;                                  ! Version Identifier

OS:Material:NoMass,
  {ce99e287-006c-4c73-8e86-69429f0f53e5}, ! Handle
  MAT-SHEATH,                             ! Name
  Rough,                                  ! Roughness
  0.36256,                                ! Thermal Resistance {m2-K/W}
  0.9,                                    ! Thermal Absorptance
  0.7,                                    ! Solar Absorptance
  0.7;                                    ! Visible Absorptance

OS:Construction,
  {dbf7ba05-5821-4701-a8d3-a55b1a06e41a}, ! Handle
  90.1-2007 Nonres 2A Ext Wall Steel-Framed, ! Name
  ,                                       ! Surface Rendering Name
  {ce99e287-006c-4c73-8e86-69429f0f53e5}, ! Layer 1
  {b0ddea02-6a6a-4673-910a-a89d9ab5fae0}, ! Layer 2
  {0a1e6f64-27c6-44cb-8f2d-1863288575a5}; ! Layer 3

OS:Material,
  {b0ddea02-6a6a-4673-910a-a89d9ab5fae0}, ! Handle
  Wall Insulation [1],                    ! Name
  MediumRough,                            ! Roughness
  0.0373223,                              ! Thickness {m}
  0.045,                                  ! Conductivity {W/m-K}
  265,                                    ! Density {kg/m3}
  836.8,                                  ! Specific Heat {J/kg-K}
  0.9,                                    ! Thermal Absorptance
  0.7,                                    ! Solar Absorptance
  0.7;                                    ! Visible Absorptance

OS:Material,
  {0a1e6f64-27c6-44cb-8f2d-1863288575a5}, ! Handle
  1/2IN Gypsum,                           ! Name
  Smooth,                                 ! Roughness
  0.01271,                                ! Thickness {m}
  0.16,                                   ! Conductivity {W/m-K}
  784.9,                                  ! Density {kg/m3}
  830,                                    ! Specific Heat {J/kg-K}
  0.9,                                    ! Thermal Absorptance
  0.92,                                   ! Solar Absorptance
  0.92;                                   ! Visible Absorptance

OS:ComponentCost:LineItem,
  {1982d8cb-44ae-45fd-b011-7b4dcd7dc71d}, ! Handle
  90.1-2007 Nonres 2A Ext Wall Steel-Framed, ! Name
  ,                                       ! Type
  Construction,                           ! Line Item Type
  90.1-2007 Nonres 2A Ext Wall Steel-Framed, ! Item Name
  ,                                       ! Object End Use Key
  ,                                       ! Quantity {dimensionless}
  87.08,                                  ! Material Cost {$}
  CostPerArea;                            ! Material Cost Units

