
OS:Version,
  {e82aaf04-2b17-41cc-b3f8-38d9775fc10f}, !- Handle
  1.0.6;                                  !- Version Identifier

OS:WindowMaterial:Glazing,
  {e99ba948-5282-4a07-834f-206572ba6abd}, !- Handle
  189.1-2011 NONRES 7A NONMETAL FRAMING THEORETICAL GLAZING, !- Name
  SpectralAverage,                        !- Optical Data Type
  ,                                       !- Window Glass Spectral Data Set Name
  0.04563,                                !- Thickness {m}
  0.36619,                                !- Solar Transmittance at Normal Incidence
  0.44496,                                !- Front Side Solar Reflectance at Normal Incidence
  0.44496,                                !- Back Side Solar Reflectance at Normal Incidence
  0.36619,                                !- Visible Transmittance at Normal Incidence
  0.44496,                                !- Front Side Visible Reflectance at Normal Incidence
  0.44496,                                !- Back Side Visible Reflectance at Normal Incidence
  0,                                      !- Infrared Transmittance at Normal Incidence
  0.84,                                   !- Front Side Infrared Hemispherical Emissivity
  0.84,                                   !- Back Side Infrared Hemispherical Emissivity
  0.08632,                                !- Conductivity {W/m-K}
  1,                                      !- Dirt Correction Factor for Solar and Visible Transmittance
  No;                                     !- Solar Diffusing

OS:Construction,
  {205c44ea-235f-4b00-bfee-1b7ebd0c6147}, !- Handle
  189.1-2011 NONRES 7 NONMETAL FRAMING,   !- Name
  ,                                       !- Surface Rendering Name
  {e99ba948-5282-4a07-834f-206572ba6abd}; !- Layer 1

