
OS:Version,
  {009fd6ce-c92b-42c0-b926-c189ffe80b39}, !- Handle
  1.0.6;                                  !- Version Identifier

OS:Construction,
  {52645086-e589-46b1-a1b9-d4c45fc35dc4}, !- Handle
  189.1-2011 NONRES 7 NONMETAL FRAMING,   !- Name
  ,                                       !- Surface Rendering Name
  {11d8ae99-7309-4978-91d5-78c8c633c523}; !- Layer 1

OS:WindowMaterial:Glazing,
  {11d8ae99-7309-4978-91d5-78c8c633c523}, !- Handle
  189.1-2011 NONRES 7A NONMETAL FRAMING THEORETICAL GLAZING, !- Name
  SpectralAverage,                        !- Optical Data Type
  ,                                       !- Window Glass Spectral Data Set Name
  0.04563,                                !- Thickness {m}
  0.36619,                                !- Solar Transmittance at Normal Incidence
  0.44496,                                !- Front Side Solar Reflectance at Normal Incidence
  0.44496,                                !- Back Side Solar Reflectance at Normal Incidence
  0.36619,                                !- Visible Transmittance at Normal Incidence
  0.44496,                                !- Front Side Visible Reflectance at Normal Incidence
  0.44496,                                !- Back Side Visible Reflectance at Normal Incidence
  0,                                      !- Infrared Transmittance at Normal Incidence
  0.84,                                   !- Front Side Infrared Hemispherical Emissivity
  0.84,                                   !- Back Side Infrared Hemispherical Emissivity
  0.08632,                                !- Conductivity {W/m-K}
  1,                                      !- Dirt Correction Factor for Solar and Visible Transmittance
  No;                                     !- Solar Diffusing

OS:ComponentData,
  {029e00e7-c779-46e5-92df-759d23b20c25}, !- Handle
  Component Data 1,                       !- Name
  {a0b2c93c-0be0-4477-8c5c-9c1e4db06d93}, !- UUID
  {4bd21eea-972c-49d8-83ae-d125b11bd602}, !- Version UUID
  1380911254,                             !- Creation Timestamp
  1380911254,                             !- Version Timestamp
  {52645086-e589-46b1-a1b9-d4c45fc35dc4}, !- Name of Object 1
  {11d8ae99-7309-4978-91d5-78c8c633c523}; !- Name of Object 2

