
OS:Version,
  {2dd7b412-336e-434a-b35c-4d62dff479c3}, ! Handle
  0.9.3;                                  ! Version Identifier

OS:Construction,
  {0660baa8-f9fc-4c03-bb37-14192201884d}, ! Handle
  189.1-2009 Nonres 2A Ext Slab Unheated - 8in Slab without Carpet, ! Name
  ,                                       ! Surface Rendering Name
  {a4d83d5f-ee14-4cb7-8e52-1c482e4a7f96}; ! Layer 1

OS:Material,
  {a4d83d5f-ee14-4cb7-8e52-1c482e4a7f96}, ! Handle
  MAT-CC05 8 HW CONCRETE,                 ! Name
  Rough,                                  ! Roughness
  0.20321,                                ! Thickness {m}
  1.311,                                  ! Conductivity {W/m-K}
  2240,                                   ! Density {kg/m3}
  836.8,                                  ! Specific Heat {J/kg-K}
  0.9,                                    ! Thermal Absorptance
  0.7,                                    ! Solar Absorptance
  0.7;                                    ! Visible Absorptance

OS:ComponentCost:LineItem,
  {29e47725-0dc3-4d4b-80cc-f78ce164bef2}, ! Handle
  189.1-2009 Nonres 2A Ext Slab Unheated - 8in Slab without Carpet, ! Name
  ,                                       ! Type
  Construction,                           ! Line Item Type
  189.1-2009 Nonres 2A Ext Slab Unheated - 8in Slab without Carpet, ! Item Name
  ,                                       ! Object End Use Key
  ,                                       ! Quantity {dimensionless}
  45.52,                                  ! Material Cost {$}
  CostPerArea;                            ! Material Cost Units

