
OS:Version,
  {e1b8a603-968f-40b3-8ed5-64e2b413f94c}, ! Handle
  0.9.3;                                  ! Version Identifier

OS:Construction,
  {49b8d04c-96e2-4e2b-90b1-36fbd2eb4288}, ! Handle
  Title 24-2008 Nonres 2 Ext Slab Unheated - 8in Slab without Carpet, ! Name
  ,                                       ! Surface Rendering Name
  {6973ae7a-ac10-48b6-acd4-a626cf718211}; ! Layer 1

OS:Material,
  {6973ae7a-ac10-48b6-acd4-a626cf718211}, ! Handle
  MAT-CC05 8 HW CONCRETE,                 ! Name
  Rough,                                  ! Roughness
  0.20321,                                ! Thickness {m}
  1.311,                                  ! Conductivity {W/m-K}
  2240,                                   ! Density {kg/m3}
  836.8,                                  ! Specific Heat {J/kg-K}
  0.9,                                    ! Thermal Absorptance
  0.7,                                    ! Solar Absorptance
  0.7;                                    ! Visible Absorptance

OS:ComponentCost:LineItem,
  {f7a093e8-8ac5-4dc5-afa0-b61ef4e75fb1}, ! Handle
  Title 24-2008 Nonres 2 Ext Slab Unheated - 8in Slab without Carpet, ! Name
  ,                                       ! Type
  Construction,                           ! Line Item Type
  Title 24-2008 Nonres 2 Ext Slab Unheated - 8in Slab without Carpet, ! Item Name
  ,                                       ! Object End Use Key
  ,                                       ! Quantity {dimensionless}
  45.52,                                  ! Material Cost {$}
  CostPerArea;                            ! Material Cost Units

OS:ComponentData,
  {23366991-0395-48e0-9196-72c9830312e2}, ! Handle
  Component Data 1,                       ! Name
  {4368cd70-8530-4733-a3df-898ee5f35060}, ! UUID
  {c1032766-50d1-4c58-b6d7-94d388a2217b}, ! Version UUID
  1363981993,                             ! Creation Timestamp
  1363981993,                             ! Version Timestamp
  {49b8d04c-96e2-4e2b-90b1-36fbd2eb4288}, ! Name of Object 1
  {6973ae7a-ac10-48b6-acd4-a626cf718211}, ! Name of Object 2
  {f7a093e8-8ac5-4dc5-afa0-b61ef4e75fb1}; ! Name of Object 3

