
OS:Version,
  {724a15e1-563a-46ff-83ed-4485f04aa1ef}, ! Handle
  0.9.3;                                  ! Version Identifier

OS:ComponentCost:LineItem,
  {87aa49e3-e63d-42d2-ac51-d82940bb8e2b}, ! Handle
  Title 24-2008 Nonres 2 Ext Slab Unheated - 8in Slab without Carpet, ! Name
  ,                                       ! Type
  Construction,                           ! Line Item Type
  Title 24-2008 Nonres 2 Ext Slab Unheated - 8in Slab without Carpet, ! Item Name
  ,                                       ! Object End Use Key
  ,                                       ! Quantity {dimensionless}
  45.52,                                  ! Material Cost {$}
  CostPerArea;                            ! Material Cost Units

OS:Construction,
  {8b9dcbbc-936e-4831-b022-0a5cf0eb3fcc}, ! Handle
  Title 24-2008 Nonres 2 Ext Slab Unheated - 8in Slab without Carpet, ! Name
  ,                                       ! Surface Rendering Name
  {e56136f3-51f8-4ce3-923b-3b23135dc3c7}; ! Layer 1

OS:Material,
  {e56136f3-51f8-4ce3-923b-3b23135dc3c7}, ! Handle
  MAT-CC05 8 HW CONCRETE,                 ! Name
  Rough,                                  ! Roughness
  0.20321,                                ! Thickness {m}
  1.311,                                  ! Conductivity {W/m-K}
  2240,                                   ! Density {kg/m3}
  836.8,                                  ! Specific Heat {J/kg-K}
  0.9,                                    ! Thermal Absorptance
  0.7,                                    ! Solar Absorptance
  0.7;                                    ! Visible Absorptance

