
OS:Version,
  {1138d1ef-20cb-4aeb-b435-8991c4c66a98}, ! Handle
  0.9.3;                                  ! Version Identifier

OS:ComponentCost:LineItem,
  {3111ed67-3223-40db-83c2-3cb3a0443912}, ! Handle
  90.1-1999 Nonres B8 Int Wall,           ! Name
  ,                                       ! Type
  Construction,                           ! Line Item Type
  90.1-1999 Nonres B8 Int Wall,           ! Item Name
  ,                                       ! Object End Use Key
  ,                                       ! Quantity {dimensionless}
  0,                                      ! Material Cost {$}
  CostPerArea;                            ! Material Cost Units

OS:Material,
  {504cc5da-371b-466f-afde-a4e4e5b9a0b6}, ! Handle
  GP01 1/2 GYPSUM,                        ! Name
  Smooth,                                 ! Roughness
  0.01271,                                ! Thickness {m}
  0.16,                                   ! Conductivity {W/m-K}
  800,                                    ! Density {kg/m3}
  1090,                                   ! Specific Heat {J/kg-K}
  0.9,                                    ! Thermal Absorptance
  0.7,                                    ! Solar Absorptance
  0.5;                                    ! Visible Absorptance

OS:Material,
  {65fde253-f09a-4ce5-8414-e5872d6e469b}, ! Handle
  GP01 1/2 GYPSUM 1,                      ! Name
  Smooth,                                 ! Roughness
  0.01271,                                ! Thickness {m}
  0.16,                                   ! Conductivity {W/m-K}
  800,                                    ! Density {kg/m3}
  1090,                                   ! Specific Heat {J/kg-K}
  0.9,                                    ! Thermal Absorptance
  0.7,                                    ! Solar Absorptance
  0.5;                                    ! Visible Absorptance

OS:Construction,
  {8dfe0775-e8e3-4c2e-a591-1a5d3b8835b2}, ! Handle
  90.1-1999 Nonres B8 Int Wall,           ! Name
  ,                                       ! Surface Rendering Name
  {504cc5da-371b-466f-afde-a4e4e5b9a0b6}, ! Layer 1
  {504cc5da-371b-466f-afde-a4e4e5b9a0b6}; ! Layer 2

