
OS:Version,
  {805680c5-499d-4ab5-b90d-cf28ddbeea4e}, ! Handle
  0.9.3;                                  ! Version Identifier

OS:Construction,
  {5615ae29-b960-49c1-8bff-1168fd55f600}, ! Handle
  90.1-1999 Res B12 Skylight without Curb, ! Name
  ,                                       ! Surface Rendering Name
  {4332db38-3207-48dc-81dc-420e1aabad99}; ! Layer 1

OS:WindowMaterial:Glazing,
  {4332db38-3207-48dc-81dc-420e1aabad99}, ! Handle
  Theoretical Glass [90],                 ! Name
  SpectralAverage,                        ! Optical Data Type
  ,                                       ! Window Glass Spectral Data Set Name
  0.003,                                  ! Thickness {m}
  0.472234,                               ! Solar Transmittance at Normal Incidence
  0.477766,                               ! Front Side Solar Reflectance at Normal Incidence
  0.477766,                               ! Back Side Solar Reflectance at Normal Incidence
  0.489393,                               ! Visible Transmittance at Normal Incidence
  0.460607,                               ! Front Side Visible Reflectance at Normal Incidence
  0.460607,                               ! Back Side Visible Reflectance at Normal Incidence
  0,                                      ! Infrared Transmittance at Normal Incidence
  0.9,                                    ! Front Side Infrared Hemispherical Emissivity
  0.9,                                    ! Back Side Infrared Hemispherical Emissivity
  0.0324872;                              ! Conductivity {W/m-K}

OS:ComponentCost:LineItem,
  {22c022ec-f283-465a-b89e-992a6f5e0cbc}, ! Handle
  90.1-1999 Res B12 Skylight without Curb, ! Name
  ,                                       ! Type
  Construction,                           ! Line Item Type
  90.1-1999 Res B12 Skylight without Curb, ! Item Name
  ,                                       ! Object End Use Key
  ,                                       ! Quantity {dimensionless}
  508.362,                                ! Material Cost {$}
  CostPerArea;                            ! Material Cost Units

