
OS:Version,
  {b6e10866-519a-46ca-86eb-9fd60e00c336}, ! Handle
  0.9.3;                                  ! Version Identifier

OS:Construction,
  {54dad9ef-53b7-41b1-819d-a7a808a408b5}, ! Handle
  90.1-2001 Nonres B4 Int Wall,           ! Name
  ,                                       ! Surface Rendering Name
  {bb87a0b7-29ba-487d-bd78-785e88447a00}, ! Layer 1
  {bb87a0b7-29ba-487d-bd78-785e88447a00}; ! Layer 2

OS:Material,
  {bb87a0b7-29ba-487d-bd78-785e88447a00}, ! Handle
  GP01 1/2 GYPSUM,                        ! Name
  Smooth,                                 ! Roughness
  0.01271,                                ! Thickness {m}
  0.16,                                   ! Conductivity {W/m-K}
  800,                                    ! Density {kg/m3}
  1090,                                   ! Specific Heat {J/kg-K}
  0.9,                                    ! Thermal Absorptance
  0.7,                                    ! Solar Absorptance
  0.5;                                    ! Visible Absorptance

OS:ComponentCost:LineItem,
  {6742622a-e60c-4244-9fb0-28f3ebceed87}, ! Handle
  90.1-2001 Nonres B4 Int Wall,           ! Name
  ,                                       ! Type
  Construction,                           ! Line Item Type
  90.1-2001 Nonres B4 Int Wall,           ! Item Name
  ,                                       ! Object End Use Key
  ,                                       ! Quantity {dimensionless}
  0,                                      ! Material Cost {$}
  CostPerArea;                            ! Material Cost Units

OS:ComponentData,
  {f496ac9b-560b-4a4b-9a0c-f117ccb661f2}, ! Handle
  Component Data 1,                       ! Name
  {b180e6d4-4348-4089-8d0d-bf99e6621f7d}, ! UUID
  {31034ec7-4218-4c64-89d6-62e631b164da}, ! Version UUID
  1363981304,                             ! Creation Timestamp
  1363981304,                             ! Version Timestamp
  {54dad9ef-53b7-41b1-819d-a7a808a408b5}, ! Name of Object 1
  {bb87a0b7-29ba-487d-bd78-785e88447a00}, ! Name of Object 2
  {6742622a-e60c-4244-9fb0-28f3ebceed87}; ! Name of Object 3

