
OS:Version,
  {ff68b24c-a13b-4a55-9217-42c2c4064e40}, !- Handle
  1.1.0;                                  !- Version Identifier

OS:Construction,
  {82d2b3bc-1d8f-419f-928a-9f7727c07bce}, !- Handle
  Sgl Ref-A-L Tint 6mm,                   !- Name
  ,                                       !- Surface Rendering Name
  {260744a0-9fa0-4642-b97e-795323146c82}; !- Layer 1

OS:WindowMaterial:Glazing,
  {260744a0-9fa0-4642-b97e-795323146c82}, !- Handle
  REF A TINT LO 6MM,                      !- Name
  SpectralAverage,                        !- Optical Data Type
  ,                                       !- Window Glass Spectral Data Set Name
  0.006,                                  !- Thickness {m}
  0.04,                                   !- Solar Transmittance at Normal Incidence
  0.15,                                   !- Front Side Solar Reflectance at Normal Incidence
  0.47,                                   !- Back Side Solar Reflectance at Normal Incidence
  0.05,                                   !- Visible Transmittance at Normal Incidence
  0.17,                                   !- Front Side Visible Reflectance at Normal Incidence
  0.37,                                   !- Back Side Visible Reflectance at Normal Incidence
  0,                                      !- Infrared Transmittance at Normal Incidence
  0.84,                                   !- Front Side Infrared Hemispherical Emissivity
  0.41,                                   !- Back Side Infrared Hemispherical Emissivity
  0.9;                                    !- Conductivity {W/m-K}

