
OS:Version,
  {5144980d-7fec-4b0d-a35d-44a72d6edc0e}, !- Handle
  1.1.0;                                  !- Version Identifier

OS:Construction,
  {7cb30ce7-db17-425c-a5a8-3520345189b1}, !- Handle
  Sgl Ref-A-L Tint 6mm,                   !- Name
  ,                                       !- Surface Rendering Name
  {7a25520e-656f-4cb5-a89b-602e8b71f4e7}; !- Layer 1

OS:WindowMaterial:Glazing,
  {7a25520e-656f-4cb5-a89b-602e8b71f4e7}, !- Handle
  REF A TINT LO 6MM,                      !- Name
  SpectralAverage,                        !- Optical Data Type
  ,                                       !- Window Glass Spectral Data Set Name
  0.006,                                  !- Thickness {m}
  0.04,                                   !- Solar Transmittance at Normal Incidence
  0.15,                                   !- Front Side Solar Reflectance at Normal Incidence
  0.47,                                   !- Back Side Solar Reflectance at Normal Incidence
  0.05,                                   !- Visible Transmittance at Normal Incidence
  0.17,                                   !- Front Side Visible Reflectance at Normal Incidence
  0.37,                                   !- Back Side Visible Reflectance at Normal Incidence
  0,                                      !- Infrared Transmittance at Normal Incidence
  0.84,                                   !- Front Side Infrared Hemispherical Emissivity
  0.41,                                   !- Back Side Infrared Hemispherical Emissivity
  0.9;                                    !- Conductivity {W/m-K}

OS:ComponentData,
  {a6db5058-2f55-4339-a114-380c1ea0af4c}, !- Handle
  Component Data 1,                       !- Name
  {5766d40e-8ddf-4750-bf58-e2259dab9437}, !- UUID
  {f33e9fc3-e38e-4174-8bfc-ae3a5e88eee8}, !- Version UUID
  1384380186,                             !- Creation Timestamp
  1384380186,                             !- Version Timestamp
  {7cb30ce7-db17-425c-a5a8-3520345189b1}, !- Name of Object 1
  {7a25520e-656f-4cb5-a89b-602e8b71f4e7}; !- Name of Object 2

