
OS:Version,
  {653bdaf9-4726-42a0-bb99-e249f01ee487}, ! Handle
  0.9.3;                                  ! Version Identifier

OS:WindowMaterial:Glazing,
  {eb46b0c7-fcc3-4ac2-b7cd-c955fb7a9882}, ! Handle
  Theoretical Glass [673],                ! Name
  SpectralAverage,                        ! Optical Data Type
  ,                                       ! Window Glass Spectral Data Set Name
  0.003,                                  ! Thickness {m}
  0.304934,                               ! Solar Transmittance at Normal Incidence
  0.645066,                               ! Front Side Solar Reflectance at Normal Incidence
  0.645066,                               ! Back Side Solar Reflectance at Normal Incidence
  0.310844,                               ! Visible Transmittance at Normal Incidence
  0.639156,                               ! Front Side Visible Reflectance at Normal Incidence
  0.639156,                               ! Back Side Visible Reflectance at Normal Incidence
  0,                                      ! Infrared Transmittance at Normal Incidence
  0.9,                                    ! Front Side Infrared Hemispherical Emissivity
  0.9,                                    ! Back Side Infrared Hemispherical Emissivity
  0.0139798;                              ! Conductivity {W/m-K}

OS:Construction,
  {79231287-6cd6-49e7-8088-d932485112ac}, ! Handle
  Title 24-2008 Nonres 13 Window Fixed,   ! Name
  ,                                       ! Surface Rendering Name
  {eb46b0c7-fcc3-4ac2-b7cd-c955fb7a9882}; ! Layer 1

OS:ComponentCost:LineItem,
  {86fd9f01-5435-49d8-bd89-398a9212c090}, ! Handle
  Title 24-2008 Nonres 13 Window Fixed,   ! Name
  ,                                       ! Type
  Construction,                           ! Line Item Type
  Title 24-2008 Nonres 13 Window Fixed,   ! Item Name
  ,                                       ! Object End Use Key
  ,                                       ! Quantity {dimensionless}
  590.138,                                ! Material Cost {$}
  CostPerArea;                            ! Material Cost Units

