
OS:Version,
  {2d2651bb-952b-44c4-8467-a04fb028c34e}, ! Handle
  0.9.3;                                  ! Version Identifier

OS:ComponentCost:LineItem,
  {8787c858-6cf2-4bcb-9617-b968fd53ded0}, ! Handle
  90.1-2001 Res B25 Ext Wall Steel-Framed, ! Name
  ,                                       ! Type
  Construction,                           ! Line Item Type
  90.1-2001 Res B25 Ext Wall Steel-Framed, ! Item Name
  ,                                       ! Object End Use Key
  ,                                       ! Quantity {dimensionless}
  100.588,                                ! Material Cost {$}
  CostPerArea;                            ! Material Cost Units

OS:Construction,
  {2e2d2b2f-a37a-4844-a69c-5f207349778d}, ! Handle
  90.1-2001 Res B25 Ext Wall Steel-Framed, ! Name
  ,                                       ! Surface Rendering Name
  {b23d21fd-e714-4843-8e8a-71d68abd2074}, ! Layer 1
  {42c9bbca-68d6-467f-8e81-68a52c8662a4}, ! Layer 2
  {b4015707-6be7-446f-b125-5993500e5102}; ! Layer 3

OS:Material:NoMass,
  {b23d21fd-e714-4843-8e8a-71d68abd2074}, ! Handle
  MAT-SHEATH,                             ! Name
  Rough,                                  ! Roughness
  0.36256,                                ! Thermal Resistance {m2-K/W}
  0.9,                                    ! Thermal Absorptance
  0.7,                                    ! Solar Absorptance
  0.7;                                    ! Visible Absorptance

OS:Material,
  {42c9bbca-68d6-467f-8e81-68a52c8662a4}, ! Handle
  Wall Insulation [16],                   ! Name
  MediumRough,                            ! Roughness
  0.149318,                               ! Thickness {m}
  0.045,                                  ! Conductivity {W/m-K}
  265,                                    ! Density {kg/m3}
  836.8,                                  ! Specific Heat {J/kg-K}
  0.9,                                    ! Thermal Absorptance
  0.7,                                    ! Solar Absorptance
  0.7;                                    ! Visible Absorptance

OS:Material,
  {b4015707-6be7-446f-b125-5993500e5102}, ! Handle
  1/2IN Gypsum,                           ! Name
  Smooth,                                 ! Roughness
  0.01271,                                ! Thickness {m}
  0.16,                                   ! Conductivity {W/m-K}
  784.9,                                  ! Density {kg/m3}
  830,                                    ! Specific Heat {J/kg-K}
  0.9,                                    ! Thermal Absorptance
  0.92,                                   ! Solar Absorptance
  0.92;                                   ! Visible Absorptance

