
OS:Version,
  {8a743344-dda3-4cdc-986c-75a642f58473}, ! Handle
  0.9.3;                                  ! Version Identifier

OS:Construction,
  {012f88c6-f61c-4bb3-9ac4-907edadca1d7}, ! Handle
  AEDG K12 Nonres 8A Int Wall,            ! Name
  ,                                       ! Surface Rendering Name
  {210a3440-7e41-43e0-9425-c4efd78a5697}, ! Layer 1
  {210a3440-7e41-43e0-9425-c4efd78a5697}; ! Layer 2

OS:Material,
  {210a3440-7e41-43e0-9425-c4efd78a5697}, ! Handle
  GP01 1/2 GYPSUM,                        ! Name
  Smooth,                                 ! Roughness
  0.01271,                                ! Thickness {m}
  0.16,                                   ! Conductivity {W/m-K}
  800,                                    ! Density {kg/m3}
  1090,                                   ! Specific Heat {J/kg-K}
  0.9,                                    ! Thermal Absorptance
  0.7,                                    ! Solar Absorptance
  0.5;                                    ! Visible Absorptance

OS:ComponentCost:LineItem,
  {3295ff1f-bbc1-46c0-9583-af830ebfda26}, ! Handle
  AEDG K12 Nonres 8A Int Wall,            ! Name
  ,                                       ! Type
  Construction,                           ! Line Item Type
  AEDG K12 Nonres 8A Int Wall,            ! Item Name
  ,                                       ! Object End Use Key
  ,                                       ! Quantity {dimensionless}
  0,                                      ! Material Cost {$}
  CostPerArea;                            ! Material Cost Units

OS:Material,
  {40fa8567-9554-4047-bfe7-69bd6c056aba}, ! Handle
  GP01 1/2 GYPSUM 1,                      ! Name
  Smooth,                                 ! Roughness
  0.01271,                                ! Thickness {m}
  0.16,                                   ! Conductivity {W/m-K}
  800,                                    ! Density {kg/m3}
  1090,                                   ! Specific Heat {J/kg-K}
  0.9,                                    ! Thermal Absorptance
  0.7,                                    ! Solar Absorptance
  0.5;                                    ! Visible Absorptance

