
OS:Version,
  {802d1c0e-f18e-464e-95a6-08b5652e3a31}, ! Handle
  0.9.3;                                  ! Version Identifier

OS:Material,
  {3fa6ab70-4025-40e9-847c-8bd448230779}, ! Handle
  Roof Membrane,                          ! Name
  VeryRough,                              ! Roughness
  0.0095,                                 ! Thickness {m}
  0.16,                                   ! Conductivity {W/m-K}
  1121.29,                                ! Density {kg/m3}
  1460,                                   ! Specific Heat {J/kg-K}
  0.9,                                    ! Thermal Absorptance
  0.7,                                    ! Solar Absorptance
  0.7;                                    ! Visible Absorptance

OS:Material,
  {aa2ff74b-2bd8-4d36-8b44-5f4ba0f528b2}, ! Handle
  Metal Decking,                          ! Name
  MediumSmooth,                           ! Roughness
  0.001524,                               ! Thickness {m}
  45.006,                                 ! Conductivity {W/m-K}
  7680,                                   ! Density {kg/m3}
  418.4,                                  ! Specific Heat {J/kg-K}
  0.9,                                    ! Thermal Absorptance
  0.7,                                    ! Solar Absorptance
  0.3;                                    ! Visible Absorptance

OS:Construction,
  {f3a977c6-276f-4205-9335-98e3c9853d19}, ! Handle
  AEDG SHC Nonres 4B Roof IEAD,           ! Name
  ,                                       ! Surface Rendering Name
  {3fa6ab70-4025-40e9-847c-8bd448230779}, ! Layer 1
  {648f066c-075f-4acf-95c5-197eb2a102f7}, ! Layer 2
  {aa2ff74b-2bd8-4d36-8b44-5f4ba0f528b2}; ! Layer 3

OS:Material,
  {648f066c-075f-4acf-95c5-197eb2a102f7}, ! Handle
  Roof Insulation [32],                   ! Name
  MediumRough,                            ! Roughness
  0.257057,                               ! Thickness {m}
  0.049,                                  ! Conductivity {W/m-K}
  265,                                    ! Density {kg/m3}
  836.8,                                  ! Specific Heat {J/kg-K}
  0.9,                                    ! Thermal Absorptance
  0.7,                                    ! Solar Absorptance
  0.7;                                    ! Visible Absorptance

OS:ComponentCost:LineItem,
  {8864d2fe-98ba-45e6-aa18-89bd9688abc2}, ! Handle
  AEDG SHC Nonres 4B Roof IEAD,           ! Name
  ,                                       ! Type
  Construction,                           ! Line Item Type
  AEDG SHC Nonres 4B Roof IEAD,           ! Item Name
  ,                                       ! Object End Use Key
  ,                                       ! Quantity {dimensionless}
  0,                                      ! Material Cost {$}
  CostPerArea;                            ! Material Cost Units

