
OS:Version,
  {94f67ce8-3cf3-428e-a45d-7fc860dabc0e}, ! Handle
  0.9.3;                                  ! Version Identifier

OS:Construction,
  {082df593-2468-49d1-81e9-75151663eaa8}, ! Handle
  AEDG SHC Nonres 4B Roof IEAD,           ! Name
  ,                                       ! Surface Rendering Name
  {43ffef99-7bde-4897-ad75-c41b4308ced1}, ! Layer 1
  {6ca415c5-daa6-49cc-b161-40d770037157}, ! Layer 2
  {1f9e937e-5276-4d16-911f-a2e4e078a57d}; ! Layer 3

OS:Material,
  {43ffef99-7bde-4897-ad75-c41b4308ced1}, ! Handle
  Roof Membrane,                          ! Name
  VeryRough,                              ! Roughness
  0.0095,                                 ! Thickness {m}
  0.16,                                   ! Conductivity {W/m-K}
  1121.29,                                ! Density {kg/m3}
  1460,                                   ! Specific Heat {J/kg-K}
  0.9,                                    ! Thermal Absorptance
  0.7,                                    ! Solar Absorptance
  0.7;                                    ! Visible Absorptance

OS:Material,
  {6ca415c5-daa6-49cc-b161-40d770037157}, ! Handle
  Roof Insulation [32],                   ! Name
  MediumRough,                            ! Roughness
  0.257057,                               ! Thickness {m}
  0.049,                                  ! Conductivity {W/m-K}
  265,                                    ! Density {kg/m3}
  836.8,                                  ! Specific Heat {J/kg-K}
  0.9,                                    ! Thermal Absorptance
  0.7,                                    ! Solar Absorptance
  0.7;                                    ! Visible Absorptance

OS:Material,
  {1f9e937e-5276-4d16-911f-a2e4e078a57d}, ! Handle
  Metal Decking,                          ! Name
  MediumSmooth,                           ! Roughness
  0.001524,                               ! Thickness {m}
  45.006,                                 ! Conductivity {W/m-K}
  7680,                                   ! Density {kg/m3}
  418.4,                                  ! Specific Heat {J/kg-K}
  0.9,                                    ! Thermal Absorptance
  0.7,                                    ! Solar Absorptance
  0.3;                                    ! Visible Absorptance

OS:ComponentCost:LineItem,
  {efcc24a3-e15a-41c1-ba8e-386e78b23bae}, ! Handle
  AEDG SHC Nonres 4B Roof IEAD,           ! Name
  ,                                       ! Type
  Construction,                           ! Line Item Type
  AEDG SHC Nonres 4B Roof IEAD,           ! Item Name
  ,                                       ! Object End Use Key
  ,                                       ! Quantity {dimensionless}
  0,                                      ! Material Cost {$}
  CostPerArea;                            ! Material Cost Units

OS:ComponentData,
  {caffcbd6-27e8-4868-8f87-7a0014fbf154}, ! Handle
  Component Data 1,                       ! Name
  {84360938-22fc-47a3-ab0a-6324e0360948}, ! UUID
  {7221e8e1-bea4-4e74-a07f-4b68a2e6f635}, ! Version UUID
  1363981920,                             ! Creation Timestamp
  1363981920,                             ! Version Timestamp
  {082df593-2468-49d1-81e9-75151663eaa8}, ! Name of Object 1
  {43ffef99-7bde-4897-ad75-c41b4308ced1}, ! Name of Object 2
  {6ca415c5-daa6-49cc-b161-40d770037157}, ! Name of Object 3
  {1f9e937e-5276-4d16-911f-a2e4e078a57d}, ! Name of Object 4
  {efcc24a3-e15a-41c1-ba8e-386e78b23bae}; ! Name of Object 5

