
OS:Version,
  {c7e1a840-0064-4dfd-9205-8af19e0af9b8}, ! Handle
  0.9.3;                                  ! Version Identifier

OS:Material,
  {dd2d3f6f-52bb-435c-8e95-53e560a2ded7}, ! Handle
  Metal Decking,                          ! Name
  MediumSmooth,                           ! Roughness
  0.001524,                               ! Thickness {m}
  45.006,                                 ! Conductivity {W/m-K}
  7680,                                   ! Density {kg/m3}
  418.4,                                  ! Specific Heat {J/kg-K}
  0.9,                                    ! Thermal Absorptance
  0.7,                                    ! Solar Absorptance
  0.3;                                    ! Visible Absorptance

OS:Material,
  {250fbe94-6ff5-49e6-ac31-5bad6cd0d08d}, ! Handle
  Roof Insulation,                        ! Name
  MediumRough,                            ! Roughness
  0.124958,                               ! Thickness {m}
  0.049,                                  ! Conductivity {W/m-K}
  265,                                    ! Density {kg/m3}
  836.8,                                  ! Specific Heat {J/kg-K}
  0.9,                                    ! Thermal Absorptance
  0.7,                                    ! Solar Absorptance
  0.7;                                    ! Visible Absorptance

OS:ComponentCost:LineItem,
  {97a4448d-81e2-42e2-98d6-be3498957995}, ! Handle
  90.1-2001 Res B14 Roof IEAD,            ! Name
  ,                                       ! Type
  Construction,                           ! Line Item Type
  90.1-2001 Res B14 Roof IEAD,            ! Item Name
  ,                                       ! Object End Use Key
  ,                                       ! Quantity {dimensionless}
  49.208,                                 ! Material Cost {$}
  CostPerArea;                            ! Material Cost Units

OS:Material,
  {9bbca1cf-ce39-4ce8-8482-fc7d1c55369d}, ! Handle
  Roof Membrane,                          ! Name
  VeryRough,                              ! Roughness
  0.0095,                                 ! Thickness {m}
  0.16,                                   ! Conductivity {W/m-K}
  1121.29,                                ! Density {kg/m3}
  1460,                                   ! Specific Heat {J/kg-K}
  0.9,                                    ! Thermal Absorptance
  0.7,                                    ! Solar Absorptance
  0.7;                                    ! Visible Absorptance

OS:Construction,
  {06ab12bf-8a9f-472a-a71e-87abc471874b}, ! Handle
  90.1-2001 Res B14 Roof IEAD,            ! Name
  ,                                       ! Surface Rendering Name
  {9bbca1cf-ce39-4ce8-8482-fc7d1c55369d}, ! Layer 1
  {250fbe94-6ff5-49e6-ac31-5bad6cd0d08d}, ! Layer 2
  {dd2d3f6f-52bb-435c-8e95-53e560a2ded7}; ! Layer 3

