
OS:Version,
  {1478baa5-47cc-4fa8-a355-fcfab2102041}, ! Handle
  0.9.3;                                  ! Version Identifier

OS:Material,
  {3b197e63-dd90-42a4-8807-803d5d908c16}, ! Handle
  1IN Stucco,                             ! Name
  Smooth,                                 ! Roughness
  0.0253,                                 ! Thickness {m}
  0.6918,                                 ! Conductivity {W/m-K}
  1858,                                   ! Density {kg/m3}
  837,                                    ! Specific Heat {J/kg-K}
  0.9,                                    ! Thermal Absorptance
  0.92,                                   ! Solar Absorptance
  0.92;                                   ! Visible Absorptance

OS:Material,
  {1b1b87e6-3d3b-4389-aed2-bab332354039}, ! Handle
  8IN Concrete HW,                        ! Name
  MediumRough,                            ! Roughness
  0.2033,                                 ! Thickness {m}
  1.7296,                                 ! Conductivity {W/m-K}
  2243,                                   ! Density {kg/m3}
  837,                                    ! Specific Heat {J/kg-K}
  0.9,                                    ! Thermal Absorptance
  0.65,                                   ! Solar Absorptance
  0.65;                                   ! Visible Absorptance

OS:ComponentCost:LineItem,
  {36a7f60d-12bb-49e3-82fa-c3fa1f451073}, ! Handle
  90.1-1999 Nonres B4 Ext Wall Mass,      ! Name
  ,                                       ! Type
  Construction,                           ! Line Item Type
  90.1-1999 Nonres B4 Ext Wall Mass,      ! Item Name
  ,                                       ! Object End Use Key
  ,                                       ! Quantity {dimensionless}
  41.397,                                 ! Material Cost {$}
  CostPerArea;                            ! Material Cost Units

OS:Material,
  {23fe7f4c-228d-476f-b268-6de3526958fd}, ! Handle
  1/2IN Gypsum,                           ! Name
  Smooth,                                 ! Roughness
  0.01271,                                ! Thickness {m}
  0.16,                                   ! Conductivity {W/m-K}
  784.9,                                  ! Density {kg/m3}
  830,                                    ! Specific Heat {J/kg-K}
  0.9,                                    ! Thermal Absorptance
  0.92,                                   ! Solar Absorptance
  0.92;                                   ! Visible Absorptance

OS:Construction,
  {d254db91-8506-4bae-aa1c-796542227926}, ! Handle
  90.1-1999 Nonres B4 Ext Wall Mass,      ! Name
  ,                                       ! Surface Rendering Name
  {3b197e63-dd90-42a4-8807-803d5d908c16}, ! Layer 1
  {1b1b87e6-3d3b-4389-aed2-bab332354039}, ! Layer 2
  {23fe7f4c-228d-476f-b268-6de3526958fd}; ! Layer 3

