
OS:Version,
  {73596da9-01a5-4b31-b1aa-5d9635323062}, ! Handle
  0.9.3;                                  ! Version Identifier

OS:Construction,
  {509634fc-81b6-4fc4-91e2-b8cb299a78c7}, ! Handle
  90.1-1999 Res B5 Ext Wall Wood-Framed and Other, ! Name
  ,                                       ! Surface Rendering Name
  {32216364-8e60-4a18-8311-783753a78b8f}, ! Layer 1
  {082bf111-d4c2-41d0-998b-d6a26ef45052}, ! Layer 2
  {4bfa24ff-7ba9-4075-a53a-c3513c25057d}; ! Layer 3

OS:Material,
  {32216364-8e60-4a18-8311-783753a78b8f}, ! Handle
  Wood Siding,                            ! Name
  MediumSmooth,                           ! Roughness
  0.01,                                   ! Thickness {m}
  0.11,                                   ! Conductivity {W/m-K}
  544.62,                                 ! Density {kg/m3}
  1210,                                   ! Specific Heat {J/kg-K}
  0.9,                                    ! Thermal Absorptance
  0.78,                                   ! Solar Absorptance
  0.78;                                   ! Visible Absorptance

OS:Material,
  {082bf111-d4c2-41d0-998b-d6a26ef45052}, ! Handle
  Wall Insulation [2],                    ! Name
  MediumRough,                            ! Roughness
  0.0746874,                              ! Thickness {m}
  0.045,                                  ! Conductivity {W/m-K}
  265,                                    ! Density {kg/m3}
  836.8,                                  ! Specific Heat {J/kg-K}
  0.9,                                    ! Thermal Absorptance
  0.7,                                    ! Solar Absorptance
  0.7;                                    ! Visible Absorptance

OS:Material,
  {4bfa24ff-7ba9-4075-a53a-c3513c25057d}, ! Handle
  1/2IN Gypsum,                           ! Name
  Smooth,                                 ! Roughness
  0.01271,                                ! Thickness {m}
  0.16,                                   ! Conductivity {W/m-K}
  784.9,                                  ! Density {kg/m3}
  830,                                    ! Specific Heat {J/kg-K}
  0.9,                                    ! Thermal Absorptance
  0.92,                                   ! Solar Absorptance
  0.92;                                   ! Visible Absorptance

OS:ComponentCost:LineItem,
  {cb9194c3-6882-491f-9013-9966fb54f7ca}, ! Handle
  90.1-1999 Res B5 Ext Wall Wood-Framed and Other, ! Name
  ,                                       ! Type
  Construction,                           ! Line Item Type
  90.1-1999 Res B5 Ext Wall Wood-Framed and Other, ! Item Name
  ,                                       ! Object End Use Key
  ,                                       ! Quantity {dimensionless}
  73.056,                                 ! Material Cost {$}
  CostPerArea;                            ! Material Cost Units

OS:ComponentData,
  {a8ed01ce-740b-4af4-9c28-7a8e28f59d6b}, ! Handle
  Component Data 1,                       ! Name
  {fba2681e-19ec-4692-9416-0ccdd734804a}, ! UUID
  {44b0b388-6b6b-4b79-a024-4aafad3019b5}, ! Version UUID
  1363981182,                             ! Creation Timestamp
  1363981182,                             ! Version Timestamp
  {509634fc-81b6-4fc4-91e2-b8cb299a78c7}, ! Name of Object 1
  {32216364-8e60-4a18-8311-783753a78b8f}, ! Name of Object 2
  {082bf111-d4c2-41d0-998b-d6a26ef45052}, ! Name of Object 3
  {4bfa24ff-7ba9-4075-a53a-c3513c25057d}, ! Name of Object 4
  {cb9194c3-6882-491f-9013-9966fb54f7ca}; ! Name of Object 5

