
OS:Version,
  {a980dd53-d34f-4516-8fa2-eaed6d2a4603}, ! Handle
  0.9.3;                                  ! Version Identifier

OS:Material,
  {fa8f11d0-3a2b-447e-871b-0b2f4c5979ff}, ! Handle
  1/2IN Gypsum,                           ! Name
  Smooth,                                 ! Roughness
  0.01271,                                ! Thickness {m}
  0.16,                                   ! Conductivity {W/m-K}
  784.9,                                  ! Density {kg/m3}
  830,                                    ! Specific Heat {J/kg-K}
  0.9,                                    ! Thermal Absorptance
  0.92,                                   ! Solar Absorptance
  0.92;                                   ! Visible Absorptance

OS:ComponentCost:LineItem,
  {fa7ebe2e-5f03-47b5-a44d-9cc198d8a2e2}, ! Handle
  90.1-1999 Res B5 Ext Wall Wood-Framed and Other, ! Name
  ,                                       ! Type
  Construction,                           ! Line Item Type
  90.1-1999 Res B5 Ext Wall Wood-Framed and Other, ! Item Name
  ,                                       ! Object End Use Key
  ,                                       ! Quantity {dimensionless}
  73.056,                                 ! Material Cost {$}
  CostPerArea;                            ! Material Cost Units

OS:Material,
  {27f7140d-e469-41d8-86ab-7417bf9e5d67}, ! Handle
  Wall Insulation [2],                    ! Name
  MediumRough,                            ! Roughness
  0.0746874,                              ! Thickness {m}
  0.045,                                  ! Conductivity {W/m-K}
  265,                                    ! Density {kg/m3}
  836.8,                                  ! Specific Heat {J/kg-K}
  0.9,                                    ! Thermal Absorptance
  0.7,                                    ! Solar Absorptance
  0.7;                                    ! Visible Absorptance

OS:Construction,
  {e43a1e1a-b79d-464a-b6a3-4762e2fa9294}, ! Handle
  90.1-1999 Res B5 Ext Wall Wood-Framed and Other, ! Name
  ,                                       ! Surface Rendering Name
  {668e9a09-f32e-4ff3-867c-af610526d2c3}, ! Layer 1
  {27f7140d-e469-41d8-86ab-7417bf9e5d67}, ! Layer 2
  {fa8f11d0-3a2b-447e-871b-0b2f4c5979ff}; ! Layer 3

OS:Material,
  {668e9a09-f32e-4ff3-867c-af610526d2c3}, ! Handle
  Wood Siding,                            ! Name
  MediumSmooth,                           ! Roughness
  0.01,                                   ! Thickness {m}
  0.11,                                   ! Conductivity {W/m-K}
  544.62,                                 ! Density {kg/m3}
  1210,                                   ! Specific Heat {J/kg-K}
  0.9,                                    ! Thermal Absorptance
  0.78,                                   ! Solar Absorptance
  0.78;                                   ! Visible Absorptance

