
OS:Version,
  {e6bbec68-d5ba-4161-b856-58f0dbeab949}, ! Handle
  0.9.3;                                  ! Version Identifier

OS:Construction,
  {bebc504f-2ffa-4a3e-9eb7-699a92b3eb29}, ! Handle
  90.1 Windows Window Fixed 2424 Brk-ClrMpr-Ins-ClrPye, ! Name
  ,                                       ! Surface Rendering Name
  {b5df71e9-7f89-4165-8d65-e822240fa7f3}; ! Layer 1

OS:WindowMaterial:Glazing,
  {b5df71e9-7f89-4165-8d65-e822240fa7f3}, ! Handle
  Theoretical Glass [330],                ! Name
  SpectralAverage,                        ! Optical Data Type
  ,                                       ! Window Glass Spectral Data Set Name
  0.003,                                  ! Thickness {m}
  0.434378,                               ! Solar Transmittance at Normal Incidence
  0.515622,                               ! Front Side Solar Reflectance at Normal Incidence
  0.515622,                               ! Back Side Solar Reflectance at Normal Incidence
  0.400004,                               ! Visible Transmittance at Normal Incidence
  0.549996,                               ! Front Side Visible Reflectance at Normal Incidence
  0.549996,                               ! Back Side Visible Reflectance at Normal Incidence
  0,                                      ! Infrared Transmittance at Normal Incidence
  0.9,                                    ! Front Side Infrared Hemispherical Emissivity
  0.9,                                    ! Back Side Infrared Hemispherical Emissivity
  0.0129885;                              ! Conductivity {W/m-K}

OS:ComponentCost:LineItem,
  {1de5a2e5-cdbc-4f25-a4c1-bbaef2b0d105}, ! Handle
  90.1 Windows Window Fixed 2424 Brk-ClrMpr-Ins-ClrPye, ! Name
  ,                                       ! Type
  Construction,                           ! Line Item Type
  90.1 Windows Window Fixed 2424 Brk-ClrMpr-Ins-ClrPye, ! Item Name
  ,                                       ! Object End Use Key
  ,                                       ! Quantity {dimensionless}
  0,                                      ! Material Cost {$}
  CostPerArea;                            ! Material Cost Units

OS:ComponentData,
  {1c1d5527-70ed-43f4-97a6-b4640476f65c}, ! Handle
  Component Data 1,                       ! Name
  {7c7ea9bb-f3d7-416c-ad04-b791ef8a895b}, ! UUID
  {245371e8-2a08-4eb9-bcaa-cbe64ede1d6c}, ! Version UUID
  1363981008,                             ! Creation Timestamp
  1363981008,                             ! Version Timestamp
  {bebc504f-2ffa-4a3e-9eb7-699a92b3eb29}, ! Name of Object 1
  {b5df71e9-7f89-4165-8d65-e822240fa7f3}, ! Name of Object 2
  {1de5a2e5-cdbc-4f25-a4c1-bbaef2b0d105}; ! Name of Object 3

