
OS:Version,
  {8424a296-df52-406f-a5fa-2777f62ef85a}, ! Handle
  0.9.3;                                  ! Version Identifier

OS:WindowMaterial:Glazing,
  {d33b2d30-5664-458d-8646-0eadd4551943}, ! Handle
  Theoretical Glass [366],                ! Name
  SpectralAverage,                        ! Optical Data Type
  ,                                       ! Window Glass Spectral Data Set Name
  0.003,                                  ! Thickness {m}
  0.394694,                               ! Solar Transmittance at Normal Incidence
  0.555306,                               ! Front Side Solar Reflectance at Normal Incidence
  0.555306,                               ! Back Side Solar Reflectance at Normal Incidence
  0.549983,                               ! Visible Transmittance at Normal Incidence
  0.400017,                               ! Front Side Visible Reflectance at Normal Incidence
  0.400017,                               ! Back Side Visible Reflectance at Normal Incidence
  0,                                      ! Infrared Transmittance at Normal Incidence
  0.9,                                    ! Front Side Infrared Hemispherical Emissivity
  0.9,                                    ! Back Side Infrared Hemispherical Emissivity
  0.0125273;                              ! Conductivity {W/m-K}

OS:ComponentCost:LineItem,
  {8ac04abb-4d85-4ab9-804a-82e80d2d1412}, ! Handle
  90.1 Windows Window Fixed 2432 Brk-Grn-Ins-ClrSpe, ! Name
  ,                                       ! Type
  Construction,                           ! Line Item Type
  90.1 Windows Window Fixed 2432 Brk-Grn-Ins-ClrSpe, ! Item Name
  ,                                       ! Object End Use Key
  ,                                       ! Quantity {dimensionless}
  0,                                      ! Material Cost {$}
  CostPerArea;                            ! Material Cost Units

OS:Construction,
  {11a04f59-ce6b-4b45-ba9e-43b65a08db22}, ! Handle
  90.1 Windows Window Fixed 2432 Brk-Grn-Ins-ClrSpe, ! Name
  ,                                       ! Surface Rendering Name
  {d33b2d30-5664-458d-8646-0eadd4551943}; ! Layer 1

