
OS:Version,
  {2a708e39-d89d-49d2-982f-aea9f2b967e1}, ! Handle
  0.9.3;                                  ! Version Identifier

OS:Material,
  {3d06301c-b7b5-47cd-a25f-3bdbf7bcc8bb}, ! Handle
  1/2IN Gypsum,                           ! Name
  Smooth,                                 ! Roughness
  0.01271,                                ! Thickness {m}
  0.16,                                   ! Conductivity {W/m-K}
  784.9,                                  ! Density {kg/m3}
  830,                                    ! Specific Heat {J/kg-K}
  0.9,                                    ! Thermal Absorptance
  0.92,                                   ! Solar Absorptance
  0.92;                                   ! Visible Absorptance

OS:Construction,
  {6538755b-2b33-49f1-9aa0-4fa026ad6209}, ! Handle
  90.1-2001 Nonres B23 Ext Wall Wood-Framed and Other, ! Name
  ,                                       ! Surface Rendering Name
  {16abe0b8-f372-45c2-86a9-857196c87112}, ! Layer 1
  {a181e9cb-95cb-4465-8145-3a105708bf7b}, ! Layer 2
  {3d06301c-b7b5-47cd-a25f-3bdbf7bcc8bb}; ! Layer 3

OS:Material,
  {16abe0b8-f372-45c2-86a9-857196c87112}, ! Handle
  Wood Siding,                            ! Name
  MediumSmooth,                           ! Roughness
  0.01,                                   ! Thickness {m}
  0.11,                                   ! Conductivity {W/m-K}
  544.62,                                 ! Density {kg/m3}
  1210,                                   ! Specific Heat {J/kg-K}
  0.9,                                    ! Thermal Absorptance
  0.78,                                   ! Solar Absorptance
  0.78;                                   ! Visible Absorptance

OS:Material,
  {a181e9cb-95cb-4465-8145-3a105708bf7b}, ! Handle
  Wall Insulation [11],                   ! Name
  MediumRough,                            ! Roughness
  0.109279,                               ! Thickness {m}
  0.045,                                  ! Conductivity {W/m-K}
  265,                                    ! Density {kg/m3}
  836.8,                                  ! Specific Heat {J/kg-K}
  0.9,                                    ! Thermal Absorptance
  0.7,                                    ! Solar Absorptance
  0.7;                                    ! Visible Absorptance

OS:ComponentCost:LineItem,
  {03337b86-80a2-4b84-b4b2-388b6859a0e7}, ! Handle
  90.1-2001 Nonres B23 Ext Wall Wood-Framed and Other, ! Name
  ,                                       ! Type
  Construction,                           ! Line Item Type
  90.1-2001 Nonres B23 Ext Wall Wood-Framed and Other, ! Item Name
  ,                                       ! Object End Use Key
  ,                                       ! Quantity {dimensionless}
  77.608,                                 ! Material Cost {$}
  CostPerArea;                            ! Material Cost Units

