
OS:Version,
  {d5c7f643-e2af-4116-9390-5d8837c7bd6b}, ! Handle
  0.9.3;                                  ! Version Identifier

OS:Construction,
  {017710cb-5ce4-4a81-84cc-99b2b23aa8dc}, ! Handle
  Title 24-2008 Nonres 5 Ext Slab Unheated - 8in Slab with Carpet, ! Name
  ,                                       ! Surface Rendering Name
  {7133a4b7-fdc0-44e6-8cb4-b5ceacbfafb3}, ! Layer 1
  {24d612ce-f800-489b-8b8d-724ea0993937}; ! Layer 2

OS:Material,
  {7133a4b7-fdc0-44e6-8cb4-b5ceacbfafb3}, ! Handle
  MAT-CC05 8 HW CONCRETE,                 ! Name
  Rough,                                  ! Roughness
  0.20321,                                ! Thickness {m}
  1.311,                                  ! Conductivity {W/m-K}
  2240,                                   ! Density {kg/m3}
  836.8,                                  ! Specific Heat {J/kg-K}
  0.9,                                    ! Thermal Absorptance
  0.7,                                    ! Solar Absorptance
  0.7;                                    ! Visible Absorptance

OS:Material:NoMass,
  {24d612ce-f800-489b-8b8d-724ea0993937}, ! Handle
  CP02 CARPET PAD,                        ! Name
  VeryRough,                              ! Roughness
  0.21648,                                ! Thermal Resistance {m2-K/W}
  0.9,                                    ! Thermal Absorptance
  0.7,                                    ! Solar Absorptance
  0.8;                                    ! Visible Absorptance

OS:ComponentCost:LineItem,
  {b8267ff3-d2bc-48b7-ba1c-bad5ec000779}, ! Handle
  Title 24-2008 Nonres 5 Ext Slab Unheated - 8in Slab with Carpet, ! Name
  ,                                       ! Type
  Construction,                           ! Line Item Type
  Title 24-2008 Nonres 5 Ext Slab Unheated - 8in Slab with Carpet, ! Item Name
  ,                                       ! Object End Use Key
  ,                                       ! Quantity {dimensionless}
  45.52,                                  ! Material Cost {$}
  CostPerArea;                            ! Material Cost Units

