
OS:Version,
  {1ea4c476-da67-4c53-8440-93746f952539}, ! Handle
  0.9.3;                                  ! Version Identifier

OS:Construction,
  {bf8694f7-6d40-4b3d-b5b8-93d23eca9a80}, ! Handle
  Title 24-2008 Nonres 5 Ext Slab Unheated - 8in Slab with Carpet, ! Name
  ,                                       ! Surface Rendering Name
  {44df75b8-6a79-440d-a302-dbef23850a25}, ! Layer 1
  {cc7bae58-6bd9-44d0-80f6-2bc27d11cebc}; ! Layer 2

OS:Material,
  {44df75b8-6a79-440d-a302-dbef23850a25}, ! Handle
  MAT-CC05 8 HW CONCRETE,                 ! Name
  Rough,                                  ! Roughness
  0.20321,                                ! Thickness {m}
  1.311,                                  ! Conductivity {W/m-K}
  2240,                                   ! Density {kg/m3}
  836.8,                                  ! Specific Heat {J/kg-K}
  0.9,                                    ! Thermal Absorptance
  0.7,                                    ! Solar Absorptance
  0.7;                                    ! Visible Absorptance

OS:Material:NoMass,
  {cc7bae58-6bd9-44d0-80f6-2bc27d11cebc}, ! Handle
  CP02 CARPET PAD,                        ! Name
  VeryRough,                              ! Roughness
  0.21648,                                ! Thermal Resistance {m2-K/W}
  0.9,                                    ! Thermal Absorptance
  0.7,                                    ! Solar Absorptance
  0.8;                                    ! Visible Absorptance

OS:ComponentCost:LineItem,
  {18fde93d-0c8c-4323-8af6-483fc320457a}, ! Handle
  Title 24-2008 Nonres 5 Ext Slab Unheated - 8in Slab with Carpet, ! Name
  ,                                       ! Type
  Construction,                           ! Line Item Type
  Title 24-2008 Nonres 5 Ext Slab Unheated - 8in Slab with Carpet, ! Item Name
  ,                                       ! Object End Use Key
  ,                                       ! Quantity {dimensionless}
  45.52,                                  ! Material Cost {$}
  CostPerArea;                            ! Material Cost Units

OS:ComponentData,
  {f5a99f8e-90db-4a4e-a68e-93ab59e0f24f}, ! Handle
  Component Data 1,                       ! Name
  {a7f42ebe-f1a0-406d-b2dd-09ca56795d8b}, ! UUID
  {851b995d-cf89-46a6-98bb-45ee038c461c}, ! Version UUID
  1363982019,                             ! Creation Timestamp
  1363982019,                             ! Version Timestamp
  {bf8694f7-6d40-4b3d-b5b8-93d23eca9a80}, ! Name of Object 1
  {44df75b8-6a79-440d-a302-dbef23850a25}, ! Name of Object 2
  {cc7bae58-6bd9-44d0-80f6-2bc27d11cebc}, ! Name of Object 3
  {18fde93d-0c8c-4323-8af6-483fc320457a}; ! Name of Object 4

