
OS:Version,
  {cd0ac345-1564-49b1-84f5-486a365333f8}, ! Handle
  0.9.3;                                  ! Version Identifier

OS:Material:NoMass,
  {641db843-b703-4dc8-9be8-cd67caa6f166}, ! Handle
  CP02 CARPET PAD,                        ! Name
  VeryRough,                              ! Roughness
  0.21648,                                ! Thermal Resistance {m2-K/W}
  0.9,                                    ! Thermal Absorptance
  0.7,                                    ! Solar Absorptance
  0.8;                                    ! Visible Absorptance

OS:Material,
  {998b84c2-462d-4f69-9021-1fa360c2fe1b}, ! Handle
  MAT-CC05 8 HW CONCRETE,                 ! Name
  Rough,                                  ! Roughness
  0.20321,                                ! Thickness {m}
  1.311,                                  ! Conductivity {W/m-K}
  2240,                                   ! Density {kg/m3}
  836.8,                                  ! Specific Heat {J/kg-K}
  0.9,                                    ! Thermal Absorptance
  0.7,                                    ! Solar Absorptance
  0.7;                                    ! Visible Absorptance

OS:ComponentCost:LineItem,
  {2c612a31-5b0b-4e72-aeb0-901f8f1f1f7c}, ! Handle
  Title 24-2008 Nonres 10 Exposed Floor Mass, ! Name
  ,                                       ! Type
  Construction,                           ! Line Item Type
  Title 24-2008 Nonres 10 Exposed Floor Mass, ! Item Name
  ,                                       ! Object End Use Key
  ,                                       ! Quantity {dimensionless}
  40.432,                                 ! Material Cost {$}
  CostPerArea;                            ! Material Cost Units

OS:Construction,
  {3e3d2b0d-59ee-4edd-ab4d-25474343da52}, ! Handle
  Title 24-2008 Nonres 10 Exposed Floor Mass, ! Name
  ,                                       ! Surface Rendering Name
  {5e040a6b-a3cf-498a-96d5-141f10c7106c}, ! Layer 1
  {998b84c2-462d-4f69-9021-1fa360c2fe1b}, ! Layer 2
  {641db843-b703-4dc8-9be8-cd67caa6f166}; ! Layer 3

OS:Material,
  {5e040a6b-a3cf-498a-96d5-141f10c7106c}, ! Handle
  Floor Insulation [56],                  ! Name
  MediumRough,                            ! Roughness
  0.0018265,                              ! Thickness {m}
  0.045,                                  ! Conductivity {W/m-K}
  265,                                    ! Density {kg/m3}
  836.8,                                  ! Specific Heat {J/kg-K}
  0.9,                                    ! Thermal Absorptance
  0.7,                                    ! Solar Absorptance
  0.7;                                    ! Visible Absorptance

