
OS:Version,
  {2fcbdbd8-7085-43c3-9638-9d68be4aa162}, ! Handle
  0.9.3;                                  ! Version Identifier

OS:ComponentCost:LineItem,
  {63140a34-fa7e-41c6-b5f1-53bbb6be3c41}, ! Handle
  90.1-2001 Res B22 Ext Wall Mass,        ! Name
  ,                                       ! Type
  Construction,                           ! Line Item Type
  90.1-2001 Res B22 Ext Wall Mass,        ! Item Name
  ,                                       ! Object End Use Key
  ,                                       ! Quantity {dimensionless}
  67.955,                                 ! Material Cost {$}
  CostPerArea;                            ! Material Cost Units

OS:Material,
  {7505c4c9-4636-4f86-8fa4-53fbbbf0a388}, ! Handle
  1IN Stucco,                             ! Name
  Smooth,                                 ! Roughness
  0.0253,                                 ! Thickness {m}
  0.6918,                                 ! Conductivity {W/m-K}
  1858,                                   ! Density {kg/m3}
  837,                                    ! Specific Heat {J/kg-K}
  0.9,                                    ! Thermal Absorptance
  0.92,                                   ! Solar Absorptance
  0.92;                                   ! Visible Absorptance

OS:Material,
  {6d9b2b90-b48a-463d-af4f-59643d165eee}, ! Handle
  Wall Insulation [12],                   ! Name
  MediumRough,                            ! Roughness
  0.0784782,                              ! Thickness {m}
  0.0432,                                 ! Conductivity {W/m-K}
  91,                                     ! Density {kg/m3}
  837,                                    ! Specific Heat {J/kg-K}
  0.9,                                    ! Thermal Absorptance
  0.5,                                    ! Solar Absorptance
  0.5;                                    ! Visible Absorptance

OS:Material,
  {d018af7d-42eb-42f5-9a42-d97287d6314a}, ! Handle
  8IN Concrete HW,                        ! Name
  MediumRough,                            ! Roughness
  0.2033,                                 ! Thickness {m}
  1.7296,                                 ! Conductivity {W/m-K}
  2243,                                   ! Density {kg/m3}
  837,                                    ! Specific Heat {J/kg-K}
  0.9,                                    ! Thermal Absorptance
  0.65,                                   ! Solar Absorptance
  0.65;                                   ! Visible Absorptance

OS:Construction,
  {e8e4923e-deae-4bbb-976d-cf5ace72d353}, ! Handle
  90.1-2001 Res B22 Ext Wall Mass,        ! Name
  ,                                       ! Surface Rendering Name
  {7505c4c9-4636-4f86-8fa4-53fbbbf0a388}, ! Layer 1
  {d018af7d-42eb-42f5-9a42-d97287d6314a}, ! Layer 2
  {6d9b2b90-b48a-463d-af4f-59643d165eee}, ! Layer 3
  {a566ec32-c80a-4285-b9bf-252a729296d1}; ! Layer 4

OS:Material,
  {a566ec32-c80a-4285-b9bf-252a729296d1}, ! Handle
  1/2IN Gypsum,                           ! Name
  Smooth,                                 ! Roughness
  0.01271,                                ! Thickness {m}
  0.16,                                   ! Conductivity {W/m-K}
  784.9,                                  ! Density {kg/m3}
  830,                                    ! Specific Heat {J/kg-K}
  0.9,                                    ! Thermal Absorptance
  0.92,                                   ! Solar Absorptance
  0.92;                                   ! Visible Absorptance

