
OS:Version,
  {3217bee7-2a9f-4474-a77c-19ca6e55065d}, ! Handle
  0.9.3;                                  ! Version Identifier

OS:Construction,
  {9da90a77-96c8-4d7f-a739-fb16de08ccd3}, ! Handle
  90.1-2004 Nonres 2A Ext Wall Steel-Framed, ! Name
  ,                                       ! Surface Rendering Name
  {ec23cbda-d60c-4e8e-9ec0-2587da018006}, ! Layer 1
  {fdef275a-8b30-48c5-b208-c3514122aea8}, ! Layer 2
  {b2702a74-e543-49f2-bd9d-4abd0ab13622}; ! Layer 3

OS:Material:NoMass,
  {ec23cbda-d60c-4e8e-9ec0-2587da018006}, ! Handle
  MAT-SHEATH,                             ! Name
  Rough,                                  ! Roughness
  0.36256,                                ! Thermal Resistance {m2-K/W}
  0.9,                                    ! Thermal Absorptance
  0.7,                                    ! Solar Absorptance
  0.7;                                    ! Visible Absorptance

OS:Material,
  {fdef275a-8b30-48c5-b208-c3514122aea8}, ! Handle
  Wall Insulation [1],                    ! Name
  MediumRough,                            ! Roughness
  0.0373223,                              ! Thickness {m}
  0.045,                                  ! Conductivity {W/m-K}
  265,                                    ! Density {kg/m3}
  836.8,                                  ! Specific Heat {J/kg-K}
  0.9,                                    ! Thermal Absorptance
  0.7,                                    ! Solar Absorptance
  0.7;                                    ! Visible Absorptance

OS:Material,
  {b2702a74-e543-49f2-bd9d-4abd0ab13622}, ! Handle
  1/2IN Gypsum,                           ! Name
  Smooth,                                 ! Roughness
  0.01271,                                ! Thickness {m}
  0.16,                                   ! Conductivity {W/m-K}
  784.9,                                  ! Density {kg/m3}
  830,                                    ! Specific Heat {J/kg-K}
  0.9,                                    ! Thermal Absorptance
  0.92,                                   ! Solar Absorptance
  0.92;                                   ! Visible Absorptance

OS:ComponentCost:LineItem,
  {424b85a7-5d96-4fe6-a808-f84824777818}, ! Handle
  90.1-2004 Nonres 2A Ext Wall Steel-Framed, ! Name
  ,                                       ! Type
  Construction,                           ! Line Item Type
  90.1-2004 Nonres 2A Ext Wall Steel-Framed, ! Item Name
  ,                                       ! Object End Use Key
  ,                                       ! Quantity {dimensionless}
  87.08,                                  ! Material Cost {$}
  CostPerArea;                            ! Material Cost Units

