
OS:Version,
  {efc6ba23-259e-420c-8126-135661e23262}, ! Handle
  0.9.3;                                  ! Version Identifier

OS:Material:NoMass,
  {e58df235-1a42-45c6-9a81-45be4cbf23fd}, ! Handle
  MAT-SHEATH,                             ! Name
  Rough,                                  ! Roughness
  0.36256,                                ! Thermal Resistance {m2-K/W}
  0.9,                                    ! Thermal Absorptance
  0.7,                                    ! Solar Absorptance
  0.7;                                    ! Visible Absorptance

OS:Material,
  {fe71fc5d-5e9e-4e99-9003-9a1d8c82649d}, ! Handle
  Wall Insulation [6],                    ! Name
  MediumRough,                            ! Roughness
  0.0678449,                              ! Thickness {m}
  0.045,                                  ! Conductivity {W/m-K}
  265,                                    ! Density {kg/m3}
  836.8,                                  ! Specific Heat {J/kg-K}
  0.9,                                    ! Thermal Absorptance
  0.7,                                    ! Solar Absorptance
  0.7;                                    ! Visible Absorptance

OS:Material,
  {479b3c27-974b-4c3e-b6a9-568cdd6270d0}, ! Handle
  1/2IN Gypsum,                           ! Name
  Smooth,                                 ! Roughness
  0.01271,                                ! Thickness {m}
  0.16,                                   ! Conductivity {W/m-K}
  784.9,                                  ! Density {kg/m3}
  830,                                    ! Specific Heat {J/kg-K}
  0.9,                                    ! Thermal Absorptance
  0.92,                                   ! Solar Absorptance
  0.92;                                   ! Visible Absorptance

OS:ComponentCost:LineItem,
  {411c202e-fde3-4f7a-8503-baa519dbc9ba}, ! Handle
  90.1-2001 Res B10 Ext Wall Steel-Framed, ! Name
  ,                                       ! Type
  Construction,                           ! Line Item Type
  90.1-2001 Res B10 Ext Wall Steel-Framed, ! Item Name
  ,                                       ! Object End Use Key
  ,                                       ! Quantity {dimensionless}
  91.749,                                 ! Material Cost {$}
  CostPerArea;                            ! Material Cost Units

OS:Construction,
  {1ecb775d-6886-43fe-af68-73ccc40a77e3}, ! Handle
  90.1-2001 Res B10 Ext Wall Steel-Framed, ! Name
  ,                                       ! Surface Rendering Name
  {e58df235-1a42-45c6-9a81-45be4cbf23fd}, ! Layer 1
  {fe71fc5d-5e9e-4e99-9003-9a1d8c82649d}, ! Layer 2
  {479b3c27-974b-4c3e-b6a9-568cdd6270d0}; ! Layer 3

