
OS:Version,
  {1e5ca179-ee13-408c-8d7c-8722a52e6438}, ! Handle
  0.9.3;                                  ! Version Identifier

OS:Material,
  {1ddccbac-9596-4a72-b2ca-47301c7905f6}, ! Handle
  Metal Decking,                          ! Name
  MediumSmooth,                           ! Roughness
  0.001524,                               ! Thickness {m}
  45.006,                                 ! Conductivity {W/m-K}
  7680,                                   ! Density {kg/m3}
  418.4,                                  ! Specific Heat {J/kg-K}
  0.9,                                    ! Thermal Absorptance
  0.7,                                    ! Solar Absorptance
  0.3;                                    ! Visible Absorptance

OS:ComponentCost:LineItem,
  {4754d4d5-6aa4-4765-8e10-49cb90d2d097}, ! Handle
  90.1-2007 Nonres 8A Roof IEAD,          ! Name
  ,                                       ! Type
  Construction,                           ! Line Item Type
  90.1-2007 Nonres 8A Roof IEAD,          ! Item Name
  ,                                       ! Object End Use Key
  ,                                       ! Quantity {dimensionless}
  52.87,                                  ! Material Cost {$}
  CostPerArea;                            ! Material Cost Units

OS:Material,
  {ab1fe0c7-9f48-415c-ad22-6d798149e3af}, ! Handle
  Roof Insulation [14],                   ! Name
  MediumRough,                            ! Roughness
  0.167335,                               ! Thickness {m}
  0.049,                                  ! Conductivity {W/m-K}
  265,                                    ! Density {kg/m3}
  836.8,                                  ! Specific Heat {J/kg-K}
  0.9,                                    ! Thermal Absorptance
  0.7,                                    ! Solar Absorptance
  0.7;                                    ! Visible Absorptance

OS:Construction,
  {216f3400-5950-4ff7-b9ba-7f817d20c03b}, ! Handle
  90.1-2007 Nonres 8A Roof IEAD,          ! Name
  ,                                       ! Surface Rendering Name
  {c3eccd80-ce9e-4304-80ed-ad04263d4835}, ! Layer 1
  {ab1fe0c7-9f48-415c-ad22-6d798149e3af}, ! Layer 2
  {1ddccbac-9596-4a72-b2ca-47301c7905f6}; ! Layer 3

OS:Material,
  {c3eccd80-ce9e-4304-80ed-ad04263d4835}, ! Handle
  Roof Membrane,                          ! Name
  VeryRough,                              ! Roughness
  0.0095,                                 ! Thickness {m}
  0.16,                                   ! Conductivity {W/m-K}
  1121.29,                                ! Density {kg/m3}
  1460,                                   ! Specific Heat {J/kg-K}
  0.9,                                    ! Thermal Absorptance
  0.7,                                    ! Solar Absorptance
  0.7;                                    ! Visible Absorptance

