
OS:Version,
  {ef72212d-4c29-44eb-9baf-36389f74983a}, ! Handle
  0.9.3;                                  ! Version Identifier

OS:Construction,
  {d98f8c91-65c8-4bde-bb32-fa63dba2f682}, ! Handle
  90.1-2007 Nonres 8A Roof IEAD,          ! Name
  ,                                       ! Surface Rendering Name
  {80c74447-f77e-4ad8-990c-7ca77d000d45}, ! Layer 1
  {bda69ff0-7b1f-48f9-893d-6c3d617d8ebc}, ! Layer 2
  {2a5d89e5-ce82-4407-959b-0fe536a98f6c}; ! Layer 3

OS:Material,
  {80c74447-f77e-4ad8-990c-7ca77d000d45}, ! Handle
  Roof Membrane,                          ! Name
  VeryRough,                              ! Roughness
  0.0095,                                 ! Thickness {m}
  0.16,                                   ! Conductivity {W/m-K}
  1121.29,                                ! Density {kg/m3}
  1460,                                   ! Specific Heat {J/kg-K}
  0.9,                                    ! Thermal Absorptance
  0.7,                                    ! Solar Absorptance
  0.7;                                    ! Visible Absorptance

OS:Material,
  {bda69ff0-7b1f-48f9-893d-6c3d617d8ebc}, ! Handle
  Roof Insulation [14],                   ! Name
  MediumRough,                            ! Roughness
  0.167335,                               ! Thickness {m}
  0.049,                                  ! Conductivity {W/m-K}
  265,                                    ! Density {kg/m3}
  836.8,                                  ! Specific Heat {J/kg-K}
  0.9,                                    ! Thermal Absorptance
  0.7,                                    ! Solar Absorptance
  0.7;                                    ! Visible Absorptance

OS:Material,
  {2a5d89e5-ce82-4407-959b-0fe536a98f6c}, ! Handle
  Metal Decking,                          ! Name
  MediumSmooth,                           ! Roughness
  0.001524,                               ! Thickness {m}
  45.006,                                 ! Conductivity {W/m-K}
  7680,                                   ! Density {kg/m3}
  418.4,                                  ! Specific Heat {J/kg-K}
  0.9,                                    ! Thermal Absorptance
  0.7,                                    ! Solar Absorptance
  0.3;                                    ! Visible Absorptance

OS:ComponentCost:LineItem,
  {47e4bee7-61f2-48ed-8f3e-3c29a1323bb2}, ! Handle
  90.1-2007 Nonres 8A Roof IEAD,          ! Name
  ,                                       ! Type
  Construction,                           ! Line Item Type
  90.1-2007 Nonres 8A Roof IEAD,          ! Item Name
  ,                                       ! Object End Use Key
  ,                                       ! Quantity {dimensionless}
  52.87,                                  ! Material Cost {$}
  CostPerArea;                            ! Material Cost Units

OS:ComponentData,
  {ebe4b1fc-9074-4db4-924a-add8f052b408}, ! Handle
  Component Data 1,                       ! Name
  {e74cf378-7be9-4f72-9b9c-d91c3f40e17c}, ! UUID
  {84e29ead-d6e2-4449-9116-a5f446e39058}, ! Version UUID
  1363981824,                             ! Creation Timestamp
  1363981824,                             ! Version Timestamp
  {d98f8c91-65c8-4bde-bb32-fa63dba2f682}, ! Name of Object 1
  {80c74447-f77e-4ad8-990c-7ca77d000d45}, ! Name of Object 2
  {bda69ff0-7b1f-48f9-893d-6c3d617d8ebc}, ! Name of Object 3
  {2a5d89e5-ce82-4407-959b-0fe536a98f6c}, ! Name of Object 4
  {47e4bee7-61f2-48ed-8f3e-3c29a1323bb2}; ! Name of Object 5

