
OS:Version,
  {ebe5cefa-f64f-4d2d-83f8-c39b0c02b17d}, ! Handle
  0.9.3;                                  ! Version Identifier

OS:Construction,
  {1f2948a8-777a-4455-8c27-0218ece83040}, ! Handle
  90.1-2001 Nonres B12 Skylight without Curb, ! Name
  ,                                       ! Surface Rendering Name
  {82c8a930-bed7-48fc-9ff4-c103eb660aa2}; ! Layer 1

OS:WindowMaterial:Glazing,
  {82c8a930-bed7-48fc-9ff4-c103eb660aa2}, ! Handle
  Theoretical Glass [12],                 ! Name
  SpectralAverage,                        ! Optical Data Type
  ,                                       ! Window Glass Spectral Data Set Name
  0.003,                                  ! Thickness {m}
  0.595954,                               ! Solar Transmittance at Normal Incidence
  0.354046,                               ! Front Side Solar Reflectance at Normal Incidence
  0.354046,                               ! Back Side Solar Reflectance at Normal Incidence
  0.671296,                               ! Visible Transmittance at Normal Incidence
  0.278704,                               ! Front Side Visible Reflectance at Normal Incidence
  0.278704,                               ! Back Side Visible Reflectance at Normal Incidence
  0,                                      ! Infrared Transmittance at Normal Incidence
  0.999,                                  ! Front Side Infrared Hemispherical Emissivity
  0.999,                                  ! Back Side Infrared Hemispherical Emissivity
  299.383;                                ! Conductivity {W/m-K}

OS:ComponentCost:LineItem,
  {375d8101-09d8-44ee-bb2e-f168c466596d}, ! Handle
  90.1-2001 Nonres B12 Skylight without Curb, ! Name
  ,                                       ! Type
  Construction,                           ! Line Item Type
  90.1-2001 Nonres B12 Skylight without Curb, ! Item Name
  ,                                       ! Object End Use Key
  ,                                       ! Quantity {dimensionless}
  459.189,                                ! Material Cost {$}
  CostPerArea;                            ! Material Cost Units

