
OS:Version,
  {8f6c1c17-99ff-432f-a3b9-614cd64bc859}, ! Handle
  0.9.3;                                  ! Version Identifier

OS:Construction,
  {c08a0e7a-64a2-4f65-837e-23353889cbcc}, ! Handle
  90.1-2001 Nonres B12 Skylight without Curb, ! Name
  ,                                       ! Surface Rendering Name
  {76ed7b4a-2782-4c93-978a-9ac973850326}; ! Layer 1

OS:WindowMaterial:Glazing,
  {76ed7b4a-2782-4c93-978a-9ac973850326}, ! Handle
  Theoretical Glass [12],                 ! Name
  SpectralAverage,                        ! Optical Data Type
  ,                                       ! Window Glass Spectral Data Set Name
  0.003,                                  ! Thickness {m}
  0.595954,                               ! Solar Transmittance at Normal Incidence
  0.354046,                               ! Front Side Solar Reflectance at Normal Incidence
  0.354046,                               ! Back Side Solar Reflectance at Normal Incidence
  0.671296,                               ! Visible Transmittance at Normal Incidence
  0.278704,                               ! Front Side Visible Reflectance at Normal Incidence
  0.278704,                               ! Back Side Visible Reflectance at Normal Incidence
  0,                                      ! Infrared Transmittance at Normal Incidence
  0.999,                                  ! Front Side Infrared Hemispherical Emissivity
  0.999,                                  ! Back Side Infrared Hemispherical Emissivity
  299.383;                                ! Conductivity {W/m-K}

OS:ComponentCost:LineItem,
  {168079ba-b667-4964-bab4-be46033be599}, ! Handle
  90.1-2001 Nonres B12 Skylight without Curb, ! Name
  ,                                       ! Type
  Construction,                           ! Line Item Type
  90.1-2001 Nonres B12 Skylight without Curb, ! Item Name
  ,                                       ! Object End Use Key
  ,                                       ! Quantity {dimensionless}
  459.189,                                ! Material Cost {$}
  CostPerArea;                            ! Material Cost Units

OS:ComponentData,
  {bcf26097-032a-4ef6-b7b0-28c90a4aeb66}, ! Handle
  Component Data 1,                       ! Name
  {932ab412-c977-4953-95e2-9f29e820f6aa}, ! UUID
  {213bfb11-e6fb-4a3b-92fa-b52cff9e7e03}, ! Version UUID
  1363981355,                             ! Creation Timestamp
  1363981355,                             ! Version Timestamp
  {c08a0e7a-64a2-4f65-837e-23353889cbcc}, ! Name of Object 1
  {76ed7b4a-2782-4c93-978a-9ac973850326}, ! Name of Object 2
  {168079ba-b667-4964-bab4-be46033be599}; ! Name of Object 3

