
OS:Version,
  {c4e6195e-ca51-4767-b82f-9810caa83e4f}, ! Handle
  0.9.3;                                  ! Version Identifier

OS:Material,
  {4324b590-040e-4555-a020-da9d89cbc780}, ! Handle
  Wall Insulation,                        ! Name
  MediumRough,                            ! Roughness
  0.0598725,                              ! Thickness {m}
  0.045,                                  ! Conductivity {W/m-K}
  265,                                    ! Density {kg/m3}
  836.8,                                  ! Specific Heat {J/kg-K}
  0.9,                                    ! Thermal Absorptance
  0.7,                                    ! Solar Absorptance
  0.7;                                    ! Visible Absorptance

OS:Material,
  {5bcb2094-5ebf-49ec-83f2-287b8b2c15c7}, ! Handle
  1/2IN Gypsum,                           ! Name
  Smooth,                                 ! Roughness
  0.01271,                                ! Thickness {m}
  0.16,                                   ! Conductivity {W/m-K}
  784.9,                                  ! Density {kg/m3}
  830,                                    ! Specific Heat {J/kg-K}
  0.9,                                    ! Thermal Absorptance
  0.92,                                   ! Solar Absorptance
  0.92;                                   ! Visible Absorptance

OS:Material,
  {48089b20-3347-4bf1-9afe-a719a9ebe572}, ! Handle
  Metal Siding,                           ! Name
  Smooth,                                 ! Roughness
  0.0015,                                 ! Thickness {m}
  44.96,                                  ! Conductivity {W/m-K}
  7688.86,                                ! Density {kg/m3}
  410,                                    ! Specific Heat {J/kg-K}
  0.9,                                    ! Thermal Absorptance
  0.2,                                    ! Solar Absorptance
  0.2;                                    ! Visible Absorptance

OS:Construction,
  {866eb785-c807-41e5-b93b-1a121e96266a}, ! Handle
  90.1-2001 Res B6 Ext Wall Metal Building, ! Name
  ,                                       ! Surface Rendering Name
  {48089b20-3347-4bf1-9afe-a719a9ebe572}, ! Layer 1
  {4324b590-040e-4555-a020-da9d89cbc780}, ! Layer 2
  {5bcb2094-5ebf-49ec-83f2-287b8b2c15c7}; ! Layer 3

OS:ComponentCost:LineItem,
  {c2a6851f-457a-486b-9b7a-d0c612a412ff}, ! Handle
  90.1-2001 Res B6 Ext Wall Metal Building, ! Name
  ,                                       ! Type
  Construction,                           ! Line Item Type
  90.1-2001 Res B6 Ext Wall Metal Building, ! Item Name
  ,                                       ! Object End Use Key
  ,                                       ! Quantity {dimensionless}
  98.78,                                  ! Material Cost {$}
  CostPerArea;                            ! Material Cost Units

