
OS:Version,
  {a01fca67-2e73-4baa-990a-277b9be965d7}, ! Handle
  0.9.3;                                  ! Version Identifier

OS:Material,
  {7a3c70f0-03bc-45f3-93e3-94c303508b62}, ! Handle
  Wall Insulation [9],                    ! Name
  MediumRough,                            ! Roughness
  0.128642,                               ! Thickness {m}
  0.045,                                  ! Conductivity {W/m-K}
  265,                                    ! Density {kg/m3}
  836.8,                                  ! Specific Heat {J/kg-K}
  0.9,                                    ! Thermal Absorptance
  0.7,                                    ! Solar Absorptance
  0.7;                                    ! Visible Absorptance

OS:ComponentCost:LineItem,
  {3a2b7227-a04c-46b0-845a-2b55175618b3}, ! Handle
  90.1-1999 Res B22 Ext Wall Metal Building, ! Name
  ,                                       ! Type
  Construction,                           ! Line Item Type
  90.1-1999 Res B22 Ext Wall Metal Building, ! Item Name
  ,                                       ! Object End Use Key
  ,                                       ! Quantity {dimensionless}
  107.698,                                ! Material Cost {$}
  CostPerArea;                            ! Material Cost Units

OS:Construction,
  {51fda791-35f5-4dda-82dc-dbfc03b74057}, ! Handle
  90.1-1999 Res B22 Ext Wall Metal Building, ! Name
  ,                                       ! Surface Rendering Name
  {6a842164-f3a7-458a-b72e-ba025c77d799}, ! Layer 1
  {7a3c70f0-03bc-45f3-93e3-94c303508b62}, ! Layer 2
  {2d4e1490-b3b6-4415-8e24-70d01a59a44a}; ! Layer 3

OS:Material,
  {6a842164-f3a7-458a-b72e-ba025c77d799}, ! Handle
  Metal Siding,                           ! Name
  Smooth,                                 ! Roughness
  0.0015,                                 ! Thickness {m}
  44.96,                                  ! Conductivity {W/m-K}
  7688.86,                                ! Density {kg/m3}
  410,                                    ! Specific Heat {J/kg-K}
  0.9,                                    ! Thermal Absorptance
  0.2,                                    ! Solar Absorptance
  0.2;                                    ! Visible Absorptance

OS:Material,
  {2d4e1490-b3b6-4415-8e24-70d01a59a44a}, ! Handle
  1/2IN Gypsum,                           ! Name
  Smooth,                                 ! Roughness
  0.01271,                                ! Thickness {m}
  0.16,                                   ! Conductivity {W/m-K}
  784.9,                                  ! Density {kg/m3}
  830,                                    ! Specific Heat {J/kg-K}
  0.9,                                    ! Thermal Absorptance
  0.92,                                   ! Solar Absorptance
  0.92;                                   ! Visible Absorptance

