
OS:Version,
  {f98ea6fd-3f35-4153-87a9-3191c0fb2d5d}, ! Handle
  0.9.3;                                  ! Version Identifier

OS:Construction,
  {4e5fc50b-37b8-46de-8ea6-0e3f231b4d89}, ! Handle
  90.1-2001 Res B13 Roof Attic and Other, ! Name
  ,                                       ! Surface Rendering Name
  {0c441861-f1f2-49a3-874e-22366e29a10e}, ! Layer 1
  {9103299f-c0cb-42ed-9e71-e0ea7831902a}, ! Layer 2
  {30644ba9-9e8e-4f8b-9010-da3242db194d}, ! Layer 3
  {14573b69-4641-43aa-8b53-fd6c231999f5}; ! Layer 4

OS:Material,
  {0c441861-f1f2-49a3-874e-22366e29a10e}, ! Handle
  Wood Shingles,                          ! Name
  VeryRough,                              ! Roughness
  0.0178,                                 ! Thickness {m}
  0.115,                                  ! Conductivity {W/m-K}
  513,                                    ! Density {kg/m3}
  1255,                                   ! Specific Heat {J/kg-K}
  0.9,                                    ! Thermal Absorptance
  0.78,                                   ! Solar Absorptance
  0.78;                                   ! Visible Absorptance

OS:Material,
  {9103299f-c0cb-42ed-9e71-e0ea7831902a}, ! Handle
  1IN Wood Decking,                       ! Name
  MediumSmooth,                           ! Roughness
  0.0254,                                 ! Thickness {m}
  0.1211,                                 ! Conductivity {W/m-K}
  593,                                    ! Density {kg/m3}
  2510,                                   ! Specific Heat {J/kg-K}
  0.9,                                    ! Thermal Absorptance
  0.78,                                   ! Solar Absorptance
  0.78;                                   ! Visible Absorptance

OS:Material,
  {30644ba9-9e8e-4f8b-9010-da3242db194d}, ! Handle
  Roof Insulation [5],                    ! Name
  MediumRough,                            ! Roughness
  0.286906,                               ! Thickness {m}
  0.049,                                  ! Conductivity {W/m-K}
  265,                                    ! Density {kg/m3}
  836.8,                                  ! Specific Heat {J/kg-K}
  0.9,                                    ! Thermal Absorptance
  0.7,                                    ! Solar Absorptance
  0.7;                                    ! Visible Absorptance

OS:Material,
  {14573b69-4641-43aa-8b53-fd6c231999f5}, ! Handle
  1/2IN Gypsum,                           ! Name
  Smooth,                                 ! Roughness
  0.01271,                                ! Thickness {m}
  0.16,                                   ! Conductivity {W/m-K}
  784.9,                                  ! Density {kg/m3}
  830,                                    ! Specific Heat {J/kg-K}
  0.9,                                    ! Thermal Absorptance
  0.92,                                   ! Solar Absorptance
  0.92;                                   ! Visible Absorptance

OS:ComponentCost:LineItem,
  {4e105a37-1840-477f-84e7-74a03cd13919}, ! Handle
  90.1-2001 Res B13 Roof Attic and Other, ! Name
  ,                                       ! Type
  Construction,                           ! Line Item Type
  90.1-2001 Res B13 Roof Attic and Other, ! Item Name
  ,                                       ! Object End Use Key
  ,                                       ! Quantity {dimensionless}
  34.757,                                 ! Material Cost {$}
  CostPerArea;                            ! Material Cost Units

