
OS:Version,
  {3250f368-1dcf-4054-b609-27c38a82bad7}, ! Handle
  0.9.3;                                  ! Version Identifier

OS:Construction,
  {18e11f35-bd13-483e-a772-232f4a6a4a2d}, ! Handle
  90.1-1999 Res B22 Ext Wall Mass,        ! Name
  ,                                       ! Surface Rendering Name
  {56c43955-e95a-414c-bff6-a6bcda313343}, ! Layer 1
  {bfb2fc73-fb4b-41a3-a9f7-235253fe09b6}, ! Layer 2
  {d0351cd0-98cd-4fc1-9ea1-e8f5bf800be9}, ! Layer 3
  {2b7eeed7-a3b7-4267-b9bf-d33a7cbbe116}; ! Layer 4

OS:Material,
  {56c43955-e95a-414c-bff6-a6bcda313343}, ! Handle
  1IN Stucco,                             ! Name
  Smooth,                                 ! Roughness
  0.0253,                                 ! Thickness {m}
  0.6918,                                 ! Conductivity {W/m-K}
  1858,                                   ! Density {kg/m3}
  837,                                    ! Specific Heat {J/kg-K}
  0.9,                                    ! Thermal Absorptance
  0.92,                                   ! Solar Absorptance
  0.92;                                   ! Visible Absorptance

OS:Material,
  {bfb2fc73-fb4b-41a3-a9f7-235253fe09b6}, ! Handle
  8IN Concrete HW,                        ! Name
  MediumRough,                            ! Roughness
  0.2033,                                 ! Thickness {m}
  1.7296,                                 ! Conductivity {W/m-K}
  2243,                                   ! Density {kg/m3}
  837,                                    ! Specific Heat {J/kg-K}
  0.9,                                    ! Thermal Absorptance
  0.65,                                   ! Solar Absorptance
  0.65;                                   ! Visible Absorptance

OS:Material,
  {d0351cd0-98cd-4fc1-9ea1-e8f5bf800be9}, ! Handle
  Wall Insulation [12],                   ! Name
  MediumRough,                            ! Roughness
  0.0784782,                              ! Thickness {m}
  0.0432,                                 ! Conductivity {W/m-K}
  91,                                     ! Density {kg/m3}
  837,                                    ! Specific Heat {J/kg-K}
  0.9,                                    ! Thermal Absorptance
  0.5,                                    ! Solar Absorptance
  0.5;                                    ! Visible Absorptance

OS:Material,
  {2b7eeed7-a3b7-4267-b9bf-d33a7cbbe116}, ! Handle
  1/2IN Gypsum,                           ! Name
  Smooth,                                 ! Roughness
  0.01271,                                ! Thickness {m}
  0.16,                                   ! Conductivity {W/m-K}
  784.9,                                  ! Density {kg/m3}
  830,                                    ! Specific Heat {J/kg-K}
  0.9,                                    ! Thermal Absorptance
  0.92,                                   ! Solar Absorptance
  0.92;                                   ! Visible Absorptance

OS:ComponentCost:LineItem,
  {d20a8d11-cbad-4c3a-b90e-45323665cf40}, ! Handle
  90.1-1999 Res B22 Ext Wall Mass,        ! Name
  ,                                       ! Type
  Construction,                           ! Line Item Type
  90.1-1999 Res B22 Ext Wall Mass,        ! Item Name
  ,                                       ! Object End Use Key
  ,                                       ! Quantity {dimensionless}
  67.955,                                 ! Material Cost {$}
  CostPerArea;                            ! Material Cost Units

OS:ComponentData,
  {d52058a3-a727-4cdf-8d2d-16c4301c02d1}, ! Handle
  Component Data 1,                       ! Name
  {bdf0eaad-3c7c-4dd3-9209-f721e80b7cab}, ! UUID
  {0ef0daed-9609-4e6f-a846-b46980ba2ff9}, ! Version UUID
  1363981260,                             ! Creation Timestamp
  1363981260,                             ! Version Timestamp
  {18e11f35-bd13-483e-a772-232f4a6a4a2d}, ! Name of Object 1
  {56c43955-e95a-414c-bff6-a6bcda313343}, ! Name of Object 2
  {bfb2fc73-fb4b-41a3-a9f7-235253fe09b6}, ! Name of Object 3
  {d0351cd0-98cd-4fc1-9ea1-e8f5bf800be9}, ! Name of Object 4
  {2b7eeed7-a3b7-4267-b9bf-d33a7cbbe116}, ! Name of Object 5
  {d20a8d11-cbad-4c3a-b90e-45323665cf40}; ! Name of Object 6

