
OS:Version,
  {2894827d-e63c-45ec-931d-64efeb6314be}, ! Handle
  0.9.3;                                  ! Version Identifier

OS:Material,
  {b324d597-0d2a-4b63-b054-7c4646b2fa65}, ! Handle
  1/2IN Gypsum,                           ! Name
  Smooth,                                 ! Roughness
  0.01271,                                ! Thickness {m}
  0.16,                                   ! Conductivity {W/m-K}
  784.9,                                  ! Density {kg/m3}
  830,                                    ! Specific Heat {J/kg-K}
  0.9,                                    ! Thermal Absorptance
  0.92,                                   ! Solar Absorptance
  0.92;                                   ! Visible Absorptance

OS:Material,
  {d261bd19-6903-4c9a-968c-b45971b631d1}, ! Handle
  Wall Insulation [12],                   ! Name
  MediumRough,                            ! Roughness
  0.0784782,                              ! Thickness {m}
  0.0432,                                 ! Conductivity {W/m-K}
  91,                                     ! Density {kg/m3}
  837,                                    ! Specific Heat {J/kg-K}
  0.9,                                    ! Thermal Absorptance
  0.5,                                    ! Solar Absorptance
  0.5;                                    ! Visible Absorptance

OS:Material,
  {bb0c9902-0f33-40ed-904e-ad49e6865edd}, ! Handle
  1IN Stucco,                             ! Name
  Smooth,                                 ! Roughness
  0.0253,                                 ! Thickness {m}
  0.6918,                                 ! Conductivity {W/m-K}
  1858,                                   ! Density {kg/m3}
  837,                                    ! Specific Heat {J/kg-K}
  0.9,                                    ! Thermal Absorptance
  0.92,                                   ! Solar Absorptance
  0.92;                                   ! Visible Absorptance

OS:ComponentCost:LineItem,
  {f67aa719-3a61-4f7d-a9ce-f0b030f3ee68}, ! Handle
  90.1-1999 Res B22 Ext Wall Mass,        ! Name
  ,                                       ! Type
  Construction,                           ! Line Item Type
  90.1-1999 Res B22 Ext Wall Mass,        ! Item Name
  ,                                       ! Object End Use Key
  ,                                       ! Quantity {dimensionless}
  67.955,                                 ! Material Cost {$}
  CostPerArea;                            ! Material Cost Units

OS:Construction,
  {bb53aa7a-2c9b-4209-96e0-37b63e6122b9}, ! Handle
  90.1-1999 Res B22 Ext Wall Mass,        ! Name
  ,                                       ! Surface Rendering Name
  {bb0c9902-0f33-40ed-904e-ad49e6865edd}, ! Layer 1
  {b191e2fa-8589-4c4a-9c48-88e23b3eb3a5}, ! Layer 2
  {d261bd19-6903-4c9a-968c-b45971b631d1}, ! Layer 3
  {b324d597-0d2a-4b63-b054-7c4646b2fa65}; ! Layer 4

OS:Material,
  {b191e2fa-8589-4c4a-9c48-88e23b3eb3a5}, ! Handle
  8IN Concrete HW,                        ! Name
  MediumRough,                            ! Roughness
  0.2033,                                 ! Thickness {m}
  1.7296,                                 ! Conductivity {W/m-K}
  2243,                                   ! Density {kg/m3}
  837,                                    ! Specific Heat {J/kg-K}
  0.9,                                    ! Thermal Absorptance
  0.65,                                   ! Solar Absorptance
  0.65;                                   ! Visible Absorptance

