
OS:Version,
  {9d467659-53bd-4330-b9c2-3639efae3acc}, ! Handle
  0.9.3;                                  ! Version Identifier

OS:ComponentCost:LineItem,
  {f5dd5284-16cb-401d-bdb4-e97b6b500e18}, ! Handle
  Title 24-2008 Nonres 13 Door Non-Swinging, ! Name
  ,                                       ! Type
  Construction,                           ! Line Item Type
  Title 24-2008 Nonres 13 Door Non-Swinging, ! Item Name
  ,                                       ! Object End Use Key
  ,                                       ! Quantity {dimensionless}
  0,                                      ! Material Cost {$}
  CostPerArea;                            ! Material Cost Units

OS:Construction,
  {76690afe-8316-4635-b0ac-e947e80ac9b8}, ! Handle
  Title 24-2008 Nonres 13 Door Non-Swinging, ! Name
  ,                                       ! Surface Rendering Name
  {512b0a9f-6216-41cf-9e04-83da0c3361e9}, ! Layer 1
  {8cc7c6c9-766e-4e62-a751-25967c8a8018}, ! Layer 2
  {edc8bb34-e440-4995-94b9-51ec2a33b714}; ! Layer 3

OS:Material,
  {512b0a9f-6216-41cf-9e04-83da0c3361e9}, ! Handle
  METAL Door Medium 18Ga,                 ! Name
  Smooth,                                 ! Roughness
  0.0013106,                              ! Thickness {m}
  45.3149,                                ! Conductivity {W/m-K}
  7833.03,                                ! Density {kg/m3}
  502.08,                                 ! Specific Heat {J/kg-K}
  0.8,                                    ! Thermal Absorptance
  0.5,                                    ! Solar Absorptance
  0.5;                                    ! Visible Absorptance

OS:Material:NoMass,
  {8cc7c6c9-766e-4e62-a751-25967c8a8018}, ! Handle
  AIR [16],                               ! Name
  Smooth,                                 ! Roughness
  0.121454,                               ! Thermal Resistance {m2-K/W}
  0.8,                                    ! Thermal Absorptance
  0.5,                                    ! Solar Absorptance
  0.5;                                    ! Visible Absorptance

OS:Material,
  {edc8bb34-e440-4995-94b9-51ec2a33b714}, ! Handle
  METAL Door Medium 18Ga_2,               ! Name
  Smooth,                                 ! Roughness
  0.0013106,                              ! Thickness {m}
  45.3149,                                ! Conductivity {W/m-K}
  7833.03,                                ! Density {kg/m3}
  502.08,                                 ! Specific Heat {J/kg-K}
  0.8,                                    ! Thermal Absorptance
  0.5,                                    ! Solar Absorptance
  0.5;                                    ! Visible Absorptance

