
OS:Version,
  {bb4829b4-ba44-4aa0-a462-fdf20a9de277}, ! Handle
  0.9.3;                                  ! Version Identifier

OS:Material,
  {f178fed8-3ccb-4fdb-a705-5b6988d61ac4}, ! Handle
  1/2IN Gypsum,                           ! Name
  Smooth,                                 ! Roughness
  0.01271,                                ! Thickness {m}
  0.16,                                   ! Conductivity {W/m-K}
  784.9,                                  ! Density {kg/m3}
  830,                                    ! Specific Heat {J/kg-K}
  0.9,                                    ! Thermal Absorptance
  0.92,                                   ! Solar Absorptance
  0.92;                                   ! Visible Absorptance

OS:Material,
  {333fa1a0-398b-4793-8a13-899e36babe18}, ! Handle
  Wall Insulation,                        ! Name
  MediumRough,                            ! Roughness
  0.0598725,                              ! Thickness {m}
  0.045,                                  ! Conductivity {W/m-K}
  265,                                    ! Density {kg/m3}
  836.8,                                  ! Specific Heat {J/kg-K}
  0.9,                                    ! Thermal Absorptance
  0.7,                                    ! Solar Absorptance
  0.7;                                    ! Visible Absorptance

OS:Construction,
  {3fb51e84-8153-45ba-82b1-f03e39eb21d0}, ! Handle
  90.1-2001 Nonres B13 Ext Wall Metal Building, ! Name
  ,                                       ! Surface Rendering Name
  {d2350f8f-daae-431e-b4a2-38f70db108dd}, ! Layer 1
  {333fa1a0-398b-4793-8a13-899e36babe18}, ! Layer 2
  {f178fed8-3ccb-4fdb-a705-5b6988d61ac4}; ! Layer 3

OS:Material,
  {d2350f8f-daae-431e-b4a2-38f70db108dd}, ! Handle
  Metal Siding,                           ! Name
  Smooth,                                 ! Roughness
  0.0015,                                 ! Thickness {m}
  44.96,                                  ! Conductivity {W/m-K}
  7688.86,                                ! Density {kg/m3}
  410,                                    ! Specific Heat {J/kg-K}
  0.9,                                    ! Thermal Absorptance
  0.2,                                    ! Solar Absorptance
  0.2;                                    ! Visible Absorptance

OS:ComponentCost:LineItem,
  {a4220938-66f1-4362-8419-8113cda1d57f}, ! Handle
  90.1-2001 Nonres B13 Ext Wall Metal Building, ! Name
  ,                                       ! Type
  Construction,                           ! Line Item Type
  90.1-2001 Nonres B13 Ext Wall Metal Building, ! Item Name
  ,                                       ! Object End Use Key
  ,                                       ! Quantity {dimensionless}
  98.78,                                  ! Material Cost {$}
  CostPerArea;                            ! Material Cost Units

