
OS:Version,
  {8b08b92f-0503-4d98-9a79-12f5a94a3faf}, ! Handle
  0.9.3;                                  ! Version Identifier

OS:Material,
  {9a3e0a8c-6212-4e45-bcc1-168c641bf9a0}, ! Handle
  1/2IN Gypsum,                           ! Name
  Smooth,                                 ! Roughness
  0.01271,                                ! Thickness {m}
  0.16,                                   ! Conductivity {W/m-K}
  784.9,                                  ! Density {kg/m3}
  830,                                    ! Specific Heat {J/kg-K}
  0.9,                                    ! Thermal Absorptance
  0.92,                                   ! Solar Absorptance
  0.92;                                   ! Visible Absorptance

OS:Material,
  {fc159c46-3116-4a06-98c8-36914b2c4273}, ! Handle
  Wall Insulation [1],                    ! Name
  MediumRough,                            ! Roughness
  0.0373223,                              ! Thickness {m}
  0.045,                                  ! Conductivity {W/m-K}
  265,                                    ! Density {kg/m3}
  836.8,                                  ! Specific Heat {J/kg-K}
  0.9,                                    ! Thermal Absorptance
  0.7,                                    ! Solar Absorptance
  0.7;                                    ! Visible Absorptance

OS:Material:NoMass,
  {12c30ed4-b086-41c9-801c-e310ce9847b4}, ! Handle
  MAT-SHEATH,                             ! Name
  Rough,                                  ! Roughness
  0.36256,                                ! Thermal Resistance {m2-K/W}
  0.9,                                    ! Thermal Absorptance
  0.7,                                    ! Solar Absorptance
  0.7;                                    ! Visible Absorptance

OS:Construction,
  {e73bb76f-17e1-4e64-b096-917708ab8d29}, ! Handle
  90.1-2001 Res B4 Ext Wall Steel-Framed, ! Name
  ,                                       ! Surface Rendering Name
  {12c30ed4-b086-41c9-801c-e310ce9847b4}, ! Layer 1
  {fc159c46-3116-4a06-98c8-36914b2c4273}, ! Layer 2
  {9a3e0a8c-6212-4e45-bcc1-168c641bf9a0}; ! Layer 3

OS:ComponentCost:LineItem,
  {5f54f3f2-48ff-43cc-8d8f-ced85764898b}, ! Handle
  90.1-2001 Res B4 Ext Wall Steel-Framed, ! Name
  ,                                       ! Type
  Construction,                           ! Line Item Type
  90.1-2001 Res B4 Ext Wall Steel-Framed, ! Item Name
  ,                                       ! Object End Use Key
  ,                                       ! Quantity {dimensionless}
  87.08,                                  ! Material Cost {$}
  CostPerArea;                            ! Material Cost Units

