
OS:Version,
  {3bd8b98a-a548-4976-87a4-aa3baf431535}, ! Handle
  0.9.3;                                  ! Version Identifier

OS:Material,
  {27194f8e-f7e0-4b07-aefe-fea9f73ed41d}, ! Handle
  1/2IN Gypsum,                           ! Name
  Smooth,                                 ! Roughness
  0.01271,                                ! Thickness {m}
  0.16,                                   ! Conductivity {W/m-K}
  784.9,                                  ! Density {kg/m3}
  830,                                    ! Specific Heat {J/kg-K}
  0.9,                                    ! Thermal Absorptance
  0.92,                                   ! Solar Absorptance
  0.92;                                   ! Visible Absorptance

OS:Material:NoMass,
  {8bc81585-3400-4e6a-863b-16493e7eb234}, ! Handle
  MAT-SHEATH,                             ! Name
  Rough,                                  ! Roughness
  0.36256,                                ! Thermal Resistance {m2-K/W}
  0.9,                                    ! Thermal Absorptance
  0.7,                                    ! Solar Absorptance
  0.7;                                    ! Visible Absorptance

OS:Construction,
  {3ee44653-5e6e-4332-a9a2-501445702a6d}, ! Handle
  Title 24-2008 Nonres 7 Ext Wall Steel-Framed, ! Name
  ,                                       ! Surface Rendering Name
  {8bc81585-3400-4e6a-863b-16493e7eb234}, ! Layer 1
  {e57258fe-3eb1-4ec8-ad22-1e07a998c32f}, ! Layer 2
  {27194f8e-f7e0-4b07-aefe-fea9f73ed41d}; ! Layer 3

OS:Material,
  {e57258fe-3eb1-4ec8-ad22-1e07a998c32f}, ! Handle
  Wall Insulation [159],                  ! Name
  MediumRough,                            ! Roughness
  0.0812,                                 ! Thickness {m}
  0.045,                                  ! Conductivity {W/m-K}
  265,                                    ! Density {kg/m3}
  836.8,                                  ! Specific Heat {J/kg-K}
  0.9,                                    ! Thermal Absorptance
  0.7,                                    ! Solar Absorptance
  0.7;                                    ! Visible Absorptance

OS:ComponentCost:LineItem,
  {3a85ce9d-e52b-4dbc-a53d-59fbc06279c8}, ! Handle
  Title 24-2008 Nonres 7 Ext Wall Steel-Framed, ! Name
  ,                                       ! Type
  Construction,                           ! Line Item Type
  Title 24-2008 Nonres 7 Ext Wall Steel-Framed, ! Item Name
  ,                                       ! Object End Use Key
  ,                                       ! Quantity {dimensionless}
  155.805,                                ! Material Cost {$}
  CostPerArea;                            ! Material Cost Units

