
OS:Version,
  {894eecee-8149-4723-937d-6ca9d2747e69}, ! Handle
  0.9.3;                                  ! Version Identifier

OS:Material,
  {2b10b2a6-1a2b-449e-883e-2b1beb45225e}, ! Handle
  Wall Insulation [6],                    ! Name
  MediumRough,                            ! Roughness
  0.0678449,                              ! Thickness {m}
  0.045,                                  ! Conductivity {W/m-K}
  265,                                    ! Density {kg/m3}
  836.8,                                  ! Specific Heat {J/kg-K}
  0.9,                                    ! Thermal Absorptance
  0.7,                                    ! Solar Absorptance
  0.7;                                    ! Visible Absorptance

OS:Material,
  {01a142b1-56e8-469e-9814-4e333e3be231}, ! Handle
  1/2IN Gypsum,                           ! Name
  Smooth,                                 ! Roughness
  0.01271,                                ! Thickness {m}
  0.16,                                   ! Conductivity {W/m-K}
  784.9,                                  ! Density {kg/m3}
  830,                                    ! Specific Heat {J/kg-K}
  0.9,                                    ! Thermal Absorptance
  0.92,                                   ! Solar Absorptance
  0.92;                                   ! Visible Absorptance

OS:Construction,
  {3be50bf3-1c7b-4bba-8d33-70b2e7da047a}, ! Handle
  90.1-1999 Res B1 Ext Wall Steel-Framed, ! Name
  ,                                       ! Surface Rendering Name
  {6a0c13a2-1068-4bd4-8375-1ebf25314835}, ! Layer 1
  {2b10b2a6-1a2b-449e-883e-2b1beb45225e}, ! Layer 2
  {01a142b1-56e8-469e-9814-4e333e3be231}; ! Layer 3

OS:Material:NoMass,
  {6a0c13a2-1068-4bd4-8375-1ebf25314835}, ! Handle
  MAT-SHEATH,                             ! Name
  Rough,                                  ! Roughness
  0.36256,                                ! Thermal Resistance {m2-K/W}
  0.9,                                    ! Thermal Absorptance
  0.7,                                    ! Solar Absorptance
  0.7;                                    ! Visible Absorptance

OS:ComponentCost:LineItem,
  {9654f053-bf09-4c40-bcc9-c55601b21c4a}, ! Handle
  90.1-1999 Res B1 Ext Wall Steel-Framed, ! Name
  ,                                       ! Type
  Construction,                           ! Line Item Type
  90.1-1999 Res B1 Ext Wall Steel-Framed, ! Item Name
  ,                                       ! Object End Use Key
  ,                                       ! Quantity {dimensionless}
  91.749,                                 ! Material Cost {$}
  CostPerArea;                            ! Material Cost Units

