
OS:Version,
  {94bcb6fa-304f-4eb7-8aac-d7e813e38988}, !- Handle
  1.1.0;                                  !- Version Identifier

OS:Construction,
  {7ee351ff-ffe0-463b-8f95-7348917869aa}, !- Handle
  Sgl Elec Abs Colored 6mm,               !- Name
  ,                                       !- Surface Rendering Name
  {09187c9c-f0a6-418a-8ffa-bacbe884a3b8}; !- Layer 1

OS:WindowMaterial:Glazing,
  {09187c9c-f0a6-418a-8ffa-bacbe884a3b8}, !- Handle
  ECABS-1 COLORED 6MM,                    !- Name
  SpectralAverage,                        !- Optical Data Type
  ,                                       !- Window Glass Spectral Data Set Name
  0.006,                                  !- Thickness {m}
  0.111,                                  !- Solar Transmittance at Normal Incidence
  0.179,                                  !- Front Side Solar Reflectance at Normal Incidence
  0.179,                                  !- Back Side Solar Reflectance at Normal Incidence
  0.128,                                  !- Visible Transmittance at Normal Incidence
  0.081,                                  !- Front Side Visible Reflectance at Normal Incidence
  0.081,                                  !- Back Side Visible Reflectance at Normal Incidence
  0,                                      !- Infrared Transmittance at Normal Incidence
  0.84,                                   !- Front Side Infrared Hemispherical Emissivity
  0.84,                                   !- Back Side Infrared Hemispherical Emissivity
  0.9;                                    !- Conductivity {W/m-K}

