
OS:Version,
  {8e6fed79-1fc6-4078-b63a-03f6b2e410d1}, ! Handle
  0.9.3;                                  ! Version Identifier

OS:Material,
  {72700d31-0490-4126-9a1f-ee78d81246f0}, ! Handle
  Wall Insulation [10],                   ! Name
  MediumRough,                            ! Roughness
  0.0971136,                              ! Thickness {m}
  0.045,                                  ! Conductivity {W/m-K}
  265,                                    ! Density {kg/m3}
  836.8,                                  ! Specific Heat {J/kg-K}
  0.9,                                    ! Thermal Absorptance
  0.7,                                    ! Solar Absorptance
  0.7;                                    ! Visible Absorptance

OS:ComponentCost:LineItem,
  {c3bc5551-7dd5-4525-bad7-ded762539702}, ! Handle
  90.1-1999 Res B22 Ext Wall Steel-Framed, ! Name
  ,                                       ! Type
  Construction,                           ! Line Item Type
  90.1-1999 Res B22 Ext Wall Steel-Framed, ! Item Name
  ,                                       ! Object End Use Key
  ,                                       ! Quantity {dimensionless}
  94.657,                                 ! Material Cost {$}
  CostPerArea;                            ! Material Cost Units

OS:Material:NoMass,
  {910351bb-f9f8-4e34-a078-7b740036fc5e}, ! Handle
  MAT-SHEATH,                             ! Name
  Rough,                                  ! Roughness
  0.36256,                                ! Thermal Resistance {m2-K/W}
  0.9,                                    ! Thermal Absorptance
  0.7,                                    ! Solar Absorptance
  0.7;                                    ! Visible Absorptance

OS:Construction,
  {e8bdfef5-26c5-453b-9e91-f1c0ac37eee6}, ! Handle
  90.1-1999 Res B22 Ext Wall Steel-Framed, ! Name
  ,                                       ! Surface Rendering Name
  {910351bb-f9f8-4e34-a078-7b740036fc5e}, ! Layer 1
  {72700d31-0490-4126-9a1f-ee78d81246f0}, ! Layer 2
  {c25b69c7-36e7-419f-b715-6303ba0844ad}; ! Layer 3

OS:Material,
  {c25b69c7-36e7-419f-b715-6303ba0844ad}, ! Handle
  1/2IN Gypsum,                           ! Name
  Smooth,                                 ! Roughness
  0.01271,                                ! Thickness {m}
  0.16,                                   ! Conductivity {W/m-K}
  784.9,                                  ! Density {kg/m3}
  830,                                    ! Specific Heat {J/kg-K}
  0.9,                                    ! Thermal Absorptance
  0.92,                                   ! Solar Absorptance
  0.92;                                   ! Visible Absorptance

