
OS:Version,
  {63be7ddc-d2fe-4f27-b2bc-df78ad3429ee}, ! Handle
  0.9.3;                                  ! Version Identifier

OS:Material,
  {bfaa2922-2044-41a0-88e0-2c5d732081f8}, ! Handle
  Roof Insulation [1],                    ! Name
  MediumRough,                            ! Roughness
  0.123533,                               ! Thickness {m}
  0.049,                                  ! Conductivity {W/m-K}
  265,                                    ! Density {kg/m3}
  836.8,                                  ! Specific Heat {J/kg-K}
  0.9,                                    ! Thermal Absorptance
  0.7,                                    ! Solar Absorptance
  0.7;                                    ! Visible Absorptance

OS:Material,
  {44fc0382-3fc2-474b-9603-d10d8e9b600d}, ! Handle
  Metal Roofing,                          ! Name
  MediumSmooth,                           ! Roughness
  0.001524,                               ! Thickness {m}
  45.006,                                 ! Conductivity {W/m-K}
  7680,                                   ! Density {kg/m3}
  418.4,                                  ! Specific Heat {J/kg-K}
  0.9,                                    ! Thermal Absorptance
  0.7,                                    ! Solar Absorptance
  0.3;                                    ! Visible Absorptance

OS:Construction,
  {19547d46-9cd5-44d7-bc86-6509a44fb772}, ! Handle
  90.1-2001 Res B8 Roof Metal Building,   ! Name
  ,                                       ! Surface Rendering Name
  {44fc0382-3fc2-474b-9603-d10d8e9b600d}, ! Layer 1
  {bfaa2922-2044-41a0-88e0-2c5d732081f8}; ! Layer 2

OS:ComponentCost:LineItem,
  {04cf29fc-a8a6-43ea-9ad1-bc98bc514efc}, ! Handle
  90.1-2001 Res B8 Roof Metal Building,   ! Name
  ,                                       ! Type
  Construction,                           ! Line Item Type
  90.1-2001 Res B8 Roof Metal Building,   ! Item Name
  ,                                       ! Object End Use Key
  ,                                       ! Quantity {dimensionless}
  38.206,                                 ! Material Cost {$}
  CostPerArea;                            ! Material Cost Units

