
OS:Version,
  {acbbdabf-6f2a-42cc-81b6-7f7a11e89b4e}, ! Handle
  0.9.3;                                  ! Version Identifier

OS:Construction,
  {859ad36b-e33e-4a0b-95a0-42b3334a2c2e}, ! Handle
  90.1-2007 Nonres 6B Ext Slab Unheated - 4in Slab without Carpet, ! Name
  ,                                       ! Surface Rendering Name
  {528c0ce0-5af1-41d5-bf01-c89f05f64296}; ! Layer 1

OS:Material,
  {528c0ce0-5af1-41d5-bf01-c89f05f64296}, ! Handle
  MAT-CC05 4 HW CONCRETE,                 ! Name
  Rough,                                  ! Roughness
  0.1016,                                 ! Thickness {m}
  1.311,                                  ! Conductivity {W/m-K}
  2240,                                   ! Density {kg/m3}
  836.8,                                  ! Specific Heat {J/kg-K}
  0.9,                                    ! Thermal Absorptance
  0.7,                                    ! Solar Absorptance
  0.7;                                    ! Visible Absorptance

OS:ComponentCost:LineItem,
  {cc4b029a-5f3d-4eb2-813f-9088cd60db9e}, ! Handle
  90.1-2007 Nonres 6B Ext Slab Unheated - 4in Slab without Carpet, ! Name
  ,                                       ! Type
  Construction,                           ! Line Item Type
  90.1-2007 Nonres 6B Ext Slab Unheated - 4in Slab without Carpet, ! Item Name
  ,                                       ! Object End Use Key
  ,                                       ! Quantity {dimensionless}
  45.52,                                  ! Material Cost {$}
  CostPerArea;                            ! Material Cost Units

OS:ComponentData,
  {1c74d5fe-ca81-4f5d-a376-6de9b673e0fe}, ! Handle
  Component Data 1,                       ! Name
  {3c3436bc-d4b9-40ca-aca8-bea6ea0856f4}, ! UUID
  {a88e2dfc-599d-4ce8-85b0-758437d550cd}, ! Version UUID
  1363981815,                             ! Creation Timestamp
  1363981815,                             ! Version Timestamp
  {859ad36b-e33e-4a0b-95a0-42b3334a2c2e}, ! Name of Object 1
  {528c0ce0-5af1-41d5-bf01-c89f05f64296}, ! Name of Object 2
  {cc4b029a-5f3d-4eb2-813f-9088cd60db9e}; ! Name of Object 3

