
OS:Version,
  {ca1e5b93-b209-4245-95f4-ce2818607e84}, ! Handle
  0.9.3;                                  ! Version Identifier

OS:ComponentCost:LineItem,
  {453e1568-435a-43dc-9a87-c3e755d05a0a}, ! Handle
  90.1-2007 Nonres 6B Ext Slab Unheated - 4in Slab without Carpet, ! Name
  ,                                       ! Type
  Construction,                           ! Line Item Type
  90.1-2007 Nonres 6B Ext Slab Unheated - 4in Slab without Carpet, ! Item Name
  ,                                       ! Object End Use Key
  ,                                       ! Quantity {dimensionless}
  45.52,                                  ! Material Cost {$}
  CostPerArea;                            ! Material Cost Units

OS:Material,
  {ae5edf92-4de4-44ee-8b56-1f2b5bcfce8d}, ! Handle
  MAT-CC05 4 HW CONCRETE,                 ! Name
  Rough,                                  ! Roughness
  0.1016,                                 ! Thickness {m}
  1.311,                                  ! Conductivity {W/m-K}
  2240,                                   ! Density {kg/m3}
  836.8,                                  ! Specific Heat {J/kg-K}
  0.9,                                    ! Thermal Absorptance
  0.7,                                    ! Solar Absorptance
  0.7;                                    ! Visible Absorptance

OS:Construction,
  {6ce55ab7-57dd-48f6-8d34-5b62d76ad813}, ! Handle
  90.1-2007 Nonres 6B Ext Slab Unheated - 4in Slab without Carpet, ! Name
  ,                                       ! Surface Rendering Name
  {ae5edf92-4de4-44ee-8b56-1f2b5bcfce8d}; ! Layer 1

