
OS:Version,
  {0055283f-0992-47d6-983f-4acabb1ea857}, ! Handle
  0.9.3;                                  ! Version Identifier

OS:Construction,
  {2f18d1df-5667-4914-9b43-3b168d957461}, ! Handle
  90.1-2001 Res B8 Roof Attic and Other,  ! Name
  ,                                       ! Surface Rendering Name
  {dad56cb2-0fc9-48b9-83fa-f0bebb6b1e86}, ! Layer 1
  {150522fb-0dc7-4e6f-8be4-dde67465e8f4}, ! Layer 2
  {444601a8-01ea-4130-b388-424bed60cfd4}, ! Layer 3
  {1ccca6a6-e55a-4504-a8e1-8d0058b59791}; ! Layer 4

OS:Material,
  {dad56cb2-0fc9-48b9-83fa-f0bebb6b1e86}, ! Handle
  Wood Shingles,                          ! Name
  VeryRough,                              ! Roughness
  0.0178,                                 ! Thickness {m}
  0.115,                                  ! Conductivity {W/m-K}
  513,                                    ! Density {kg/m3}
  1255,                                   ! Specific Heat {J/kg-K}
  0.9,                                    ! Thermal Absorptance
  0.78,                                   ! Solar Absorptance
  0.78;                                   ! Visible Absorptance

OS:Material,
  {150522fb-0dc7-4e6f-8be4-dde67465e8f4}, ! Handle
  1IN Wood Decking,                       ! Name
  MediumSmooth,                           ! Roughness
  0.0254,                                 ! Thickness {m}
  0.1211,                                 ! Conductivity {W/m-K}
  593,                                    ! Density {kg/m3}
  2510,                                   ! Specific Heat {J/kg-K}
  0.9,                                    ! Thermal Absorptance
  0.78,                                   ! Solar Absorptance
  0.78;                                   ! Visible Absorptance

OS:Material,
  {444601a8-01ea-4130-b388-424bed60cfd4}, ! Handle
  Roof Insulation [5],                    ! Name
  MediumRough,                            ! Roughness
  0.286906,                               ! Thickness {m}
  0.049,                                  ! Conductivity {W/m-K}
  265,                                    ! Density {kg/m3}
  836.8,                                  ! Specific Heat {J/kg-K}
  0.9,                                    ! Thermal Absorptance
  0.7,                                    ! Solar Absorptance
  0.7;                                    ! Visible Absorptance

OS:Material,
  {1ccca6a6-e55a-4504-a8e1-8d0058b59791}, ! Handle
  1/2IN Gypsum,                           ! Name
  Smooth,                                 ! Roughness
  0.01271,                                ! Thickness {m}
  0.16,                                   ! Conductivity {W/m-K}
  784.9,                                  ! Density {kg/m3}
  830,                                    ! Specific Heat {J/kg-K}
  0.9,                                    ! Thermal Absorptance
  0.92,                                   ! Solar Absorptance
  0.92;                                   ! Visible Absorptance

OS:ComponentCost:LineItem,
  {8c916f63-6c0f-4cfd-ad38-7172cfe39cbe}, ! Handle
  90.1-2001 Res B8 Roof Attic and Other,  ! Name
  ,                                       ! Type
  Construction,                           ! Line Item Type
  90.1-2001 Res B8 Roof Attic and Other,  ! Item Name
  ,                                       ! Object End Use Key
  ,                                       ! Quantity {dimensionless}
  34.757,                                 ! Material Cost {$}
  CostPerArea;                            ! Material Cost Units

