
OS:Version,
  {eca969e1-9d22-4f84-b443-d2e3f314e977}, ! Handle
  0.9.3;                                  ! Version Identifier

OS:Construction,
  {2898d7d3-0ad6-4eb9-a913-db58310a126e}, ! Handle
  90.1-2001 Nonres B13 Skylight without Curb, ! Name
  ,                                       ! Surface Rendering Name
  {21b85e82-6b4b-411d-bfa5-056f47677a78}; ! Layer 1

OS:WindowMaterial:Glazing,
  {21b85e82-6b4b-411d-bfa5-056f47677a78}, ! Handle
  Theoretical Glass [32],                 ! Name
  SpectralAverage,                        ! Optical Data Type
  ,                                       ! Window Glass Spectral Data Set Name
  0.003,                                  ! Thickness {m}
  0.481761,                               ! Solar Transmittance at Normal Incidence
  0.468239,                               ! Front Side Solar Reflectance at Normal Incidence
  0.468239,                               ! Back Side Solar Reflectance at Normal Incidence
  0.529698,                               ! Visible Transmittance at Normal Incidence
  0.420302,                               ! Front Side Visible Reflectance at Normal Incidence
  0.420302,                               ! Back Side Visible Reflectance at Normal Incidence
  0,                                      ! Infrared Transmittance at Normal Incidence
  0.9,                                    ! Front Side Infrared Hemispherical Emissivity
  0.9,                                    ! Back Side Infrared Hemispherical Emissivity
  0.03026;                                ! Conductivity {W/m-K}

OS:ComponentCost:LineItem,
  {35f5d366-e21c-460f-ae2a-d04d938537cf}, ! Handle
  90.1-2001 Nonres B13 Skylight without Curb, ! Name
  ,                                       ! Type
  Construction,                           ! Line Item Type
  90.1-2001 Nonres B13 Skylight without Curb, ! Item Name
  ,                                       ! Object End Use Key
  ,                                       ! Quantity {dimensionless}
  514.818,                                ! Material Cost {$}
  CostPerArea;                            ! Material Cost Units

