
OS:Version,
  {31ba019e-9fa1-49ab-bb54-e09b26660851}, ! Handle
  0.9.3;                                  ! Version Identifier

OS:Material,
  {5110161a-557f-402c-9b93-4d2d0f923993}, ! Handle
  MAT-CC05 4 HW CONCRETE,                 ! Name
  Rough,                                  ! Roughness
  0.1016,                                 ! Thickness {m}
  1.311,                                  ! Conductivity {W/m-K}
  2240,                                   ! Density {kg/m3}
  836.8,                                  ! Specific Heat {J/kg-K}
  0.9,                                    ! Thermal Absorptance
  0.7,                                    ! Solar Absorptance
  0.7;                                    ! Visible Absorptance

OS:Construction,
  {ad29b9f7-f277-44f3-9ce3-3b4e31776795}, ! Handle
  90.1-1999 Nonres B9 Ext Slab Unheated - 4in Slab without Carpet, ! Name
  ,                                       ! Surface Rendering Name
  {5110161a-557f-402c-9b93-4d2d0f923993}; ! Layer 1

OS:ComponentCost:LineItem,
  {d82b3911-29bb-46ee-bf2c-8b0604833019}, ! Handle
  90.1-1999 Nonres B9 Ext Slab Unheated - 4in Slab without Carpet, ! Name
  ,                                       ! Type
  Construction,                           ! Line Item Type
  90.1-1999 Nonres B9 Ext Slab Unheated - 4in Slab without Carpet, ! Item Name
  ,                                       ! Object End Use Key
  ,                                       ! Quantity {dimensionless}
  45.52,                                  ! Material Cost {$}
  CostPerArea;                            ! Material Cost Units

