
OS:Version,
  {7d850b71-19e8-47a5-a352-563bcfbaecff}, ! Handle
  0.9.3;                                  ! Version Identifier

OS:Construction,
  {d2f0ebbb-328a-4d69-98a2-ef2fea449ae2}, ! Handle
  90.1-1999 Nonres B9 Ext Slab Unheated - 4in Slab without Carpet, ! Name
  ,                                       ! Surface Rendering Name
  {9609cbf2-cb4e-43b3-93db-e98d1793e382}; ! Layer 1

OS:Material,
  {9609cbf2-cb4e-43b3-93db-e98d1793e382}, ! Handle
  MAT-CC05 4 HW CONCRETE,                 ! Name
  Rough,                                  ! Roughness
  0.1016,                                 ! Thickness {m}
  1.311,                                  ! Conductivity {W/m-K}
  2240,                                   ! Density {kg/m3}
  836.8,                                  ! Specific Heat {J/kg-K}
  0.9,                                    ! Thermal Absorptance
  0.7,                                    ! Solar Absorptance
  0.7;                                    ! Visible Absorptance

OS:ComponentCost:LineItem,
  {5a832127-1b83-4cc8-bc15-12197220094f}, ! Handle
  90.1-1999 Nonres B9 Ext Slab Unheated - 4in Slab without Carpet, ! Name
  ,                                       ! Type
  Construction,                           ! Line Item Type
  90.1-1999 Nonres B9 Ext Slab Unheated - 4in Slab without Carpet, ! Item Name
  ,                                       ! Object End Use Key
  ,                                       ! Quantity {dimensionless}
  45.52,                                  ! Material Cost {$}
  CostPerArea;                            ! Material Cost Units

OS:ComponentData,
  {f5cf96f2-b47f-4ea9-a6ec-073dbfc0131d}, ! Handle
  Component Data 1,                       ! Name
  {aff46d36-938a-4ca2-8c91-adbc91bf7d1a}, ! UUID
  {fe69c566-0367-498b-9949-2d3a4f936852}, ! Version UUID
  1363981078,                             ! Creation Timestamp
  1363981078,                             ! Version Timestamp
  {d2f0ebbb-328a-4d69-98a2-ef2fea449ae2}, ! Name of Object 1
  {9609cbf2-cb4e-43b3-93db-e98d1793e382}, ! Name of Object 2
  {5a832127-1b83-4cc8-bc15-12197220094f}; ! Name of Object 3

