
OS:Version,
  {50c0196f-52e6-4280-b3b2-46836c71f185}, ! Handle
  0.9.3;                                  ! Version Identifier

OS:ComponentCost:LineItem,
  {fffa4976-2196-4c27-af52-e3c0a385003d}, ! Handle
  90.1-1999 Res B6 Ext Wall Wood-Framed and Other, ! Name
  ,                                       ! Type
  Construction,                           ! Line Item Type
  90.1-1999 Res B6 Ext Wall Wood-Framed and Other, ! Item Name
  ,                                       ! Object End Use Key
  ,                                       ! Quantity {dimensionless}
  73.056,                                 ! Material Cost {$}
  CostPerArea;                            ! Material Cost Units

OS:Material,
  {b8cce4fd-249b-43cd-94a6-3d6eeda48741}, ! Handle
  Wood Siding,                            ! Name
  MediumSmooth,                           ! Roughness
  0.01,                                   ! Thickness {m}
  0.11,                                   ! Conductivity {W/m-K}
  544.62,                                 ! Density {kg/m3}
  1210,                                   ! Specific Heat {J/kg-K}
  0.9,                                    ! Thermal Absorptance
  0.78,                                   ! Solar Absorptance
  0.78;                                   ! Visible Absorptance

OS:Construction,
  {0340d4bb-4660-4ba2-8fb8-b7494c4a1aa0}, ! Handle
  90.1-1999 Res B6 Ext Wall Wood-Framed and Other, ! Name
  ,                                       ! Surface Rendering Name
  {b8cce4fd-249b-43cd-94a6-3d6eeda48741}, ! Layer 1
  {ec6663eb-6e12-4cfd-9e05-b228d3f59aab}, ! Layer 2
  {f958e475-5c11-46eb-a7ef-cde230597cd5}; ! Layer 3

OS:Material,
  {ec6663eb-6e12-4cfd-9e05-b228d3f59aab}, ! Handle
  Wall Insulation [2],                    ! Name
  MediumRough,                            ! Roughness
  0.0746874,                              ! Thickness {m}
  0.045,                                  ! Conductivity {W/m-K}
  265,                                    ! Density {kg/m3}
  836.8,                                  ! Specific Heat {J/kg-K}
  0.9,                                    ! Thermal Absorptance
  0.7,                                    ! Solar Absorptance
  0.7;                                    ! Visible Absorptance

OS:Material,
  {f958e475-5c11-46eb-a7ef-cde230597cd5}, ! Handle
  1/2IN Gypsum,                           ! Name
  Smooth,                                 ! Roughness
  0.01271,                                ! Thickness {m}
  0.16,                                   ! Conductivity {W/m-K}
  784.9,                                  ! Density {kg/m3}
  830,                                    ! Specific Heat {J/kg-K}
  0.9,                                    ! Thermal Absorptance
  0.92,                                   ! Solar Absorptance
  0.92;                                   ! Visible Absorptance

