
OS:Version,
  {fc1e92fe-d2e4-4d5e-b852-b64e66fee47f}, ! Handle
  0.9.3;                                  ! Version Identifier

OS:Construction,
  {afc77a95-2e61-41ca-8e5e-5007b5ca695d}, ! Handle
  90.1-2007 Res 1A Ext Wall Wood-Framed and Other, ! Name
  ,                                       ! Surface Rendering Name
  {ff4a83ea-2a21-4371-a807-1233789ba670}, ! Layer 1
  {52344d18-5084-4695-9036-d67df0fcc313}, ! Layer 2
  {99459613-0f46-40c2-858d-a045ba084df6}; ! Layer 3

OS:Material,
  {ff4a83ea-2a21-4371-a807-1233789ba670}, ! Handle
  Wood Siding,                            ! Name
  MediumSmooth,                           ! Roughness
  0.01,                                   ! Thickness {m}
  0.11,                                   ! Conductivity {W/m-K}
  544.62,                                 ! Density {kg/m3}
  1210,                                   ! Specific Heat {J/kg-K}
  0.9,                                    ! Thermal Absorptance
  0.78,                                   ! Solar Absorptance
  0.78;                                   ! Visible Absorptance

OS:Material,
  {52344d18-5084-4695-9036-d67df0fcc313}, ! Handle
  Wall Insulation [2],                    ! Name
  MediumRough,                            ! Roughness
  0.0746874,                              ! Thickness {m}
  0.045,                                  ! Conductivity {W/m-K}
  265,                                    ! Density {kg/m3}
  836.8,                                  ! Specific Heat {J/kg-K}
  0.9,                                    ! Thermal Absorptance
  0.7,                                    ! Solar Absorptance
  0.7;                                    ! Visible Absorptance

OS:Material,
  {99459613-0f46-40c2-858d-a045ba084df6}, ! Handle
  1/2IN Gypsum,                           ! Name
  Smooth,                                 ! Roughness
  0.01271,                                ! Thickness {m}
  0.16,                                   ! Conductivity {W/m-K}
  784.9,                                  ! Density {kg/m3}
  830,                                    ! Specific Heat {J/kg-K}
  0.9,                                    ! Thermal Absorptance
  0.92,                                   ! Solar Absorptance
  0.92;                                   ! Visible Absorptance

OS:ComponentCost:LineItem,
  {08e9e412-2534-4d24-9c3d-a405989493f0}, ! Handle
  90.1-2007 Res 1A Ext Wall Wood-Framed and Other, ! Name
  ,                                       ! Type
  Construction,                           ! Line Item Type
  90.1-2007 Res 1A Ext Wall Wood-Framed and Other, ! Item Name
  ,                                       ! Object End Use Key
  ,                                       ! Quantity {dimensionless}
  73.056,                                 ! Material Cost {$}
  CostPerArea;                            ! Material Cost Units

OS:ComponentData,
  {dc738587-dd92-45df-9027-dac75756d54b}, ! Handle
  Component Data 1,                       ! Name
  {0f652fbd-b86e-484d-b4cf-af18d3fab037}, ! UUID
  {dd47185a-a6db-442c-86a5-910f2a20535d}, ! Version UUID
  1363981832,                             ! Creation Timestamp
  1363981832,                             ! Version Timestamp
  {afc77a95-2e61-41ca-8e5e-5007b5ca695d}, ! Name of Object 1
  {ff4a83ea-2a21-4371-a807-1233789ba670}, ! Name of Object 2
  {52344d18-5084-4695-9036-d67df0fcc313}, ! Name of Object 3
  {99459613-0f46-40c2-858d-a045ba084df6}, ! Name of Object 4
  {08e9e412-2534-4d24-9c3d-a405989493f0}; ! Name of Object 5

