
OS:Version,
  {d037c0f7-9fe5-4454-a1f1-1f8979c302f9}, ! Handle
  0.9.3;                                  ! Version Identifier

OS:Material,
  {3b54d530-f7f3-4c64-8cb8-f1b37deef837}, ! Handle
  Metal Decking,                          ! Name
  MediumSmooth,                           ! Roughness
  0.001524,                               ! Thickness {m}
  45.006,                                 ! Conductivity {W/m-K}
  7680,                                   ! Density {kg/m3}
  418.4,                                  ! Specific Heat {J/kg-K}
  0.9,                                    ! Thermal Absorptance
  0.7,                                    ! Solar Absorptance
  0.3;                                    ! Visible Absorptance

OS:Material,
  {848cb706-2c9d-4b76-a075-906cf89d8e96}, ! Handle
  Roof Membrane,                          ! Name
  VeryRough,                              ! Roughness
  0.0095,                                 ! Thickness {m}
  0.16,                                   ! Conductivity {W/m-K}
  1121.29,                                ! Density {kg/m3}
  1460,                                   ! Specific Heat {J/kg-K}
  0.9,                                    ! Thermal Absorptance
  0.7,                                    ! Solar Absorptance
  0.7;                                    ! Visible Absorptance

OS:Construction,
  {a484d060-07cd-480b-9a42-38146d00015a}, ! Handle
  90.1-1999 Res B10 Roof IEAD,            ! Name
  ,                                       ! Surface Rendering Name
  {848cb706-2c9d-4b76-a075-906cf89d8e96}, ! Layer 1
  {42e1f1cb-ca14-4355-961c-a00cb28eef05}, ! Layer 2
  {3b54d530-f7f3-4c64-8cb8-f1b37deef837}; ! Layer 3

OS:Material,
  {42e1f1cb-ca14-4355-961c-a00cb28eef05}, ! Handle
  Roof Insulation,                        ! Name
  MediumRough,                            ! Roughness
  0.124958,                               ! Thickness {m}
  0.049,                                  ! Conductivity {W/m-K}
  265,                                    ! Density {kg/m3}
  836.8,                                  ! Specific Heat {J/kg-K}
  0.9,                                    ! Thermal Absorptance
  0.7,                                    ! Solar Absorptance
  0.7;                                    ! Visible Absorptance

OS:ComponentCost:LineItem,
  {1634fcda-f4ee-49dd-aef2-0ec2a1044323}, ! Handle
  90.1-1999 Res B10 Roof IEAD,            ! Name
  ,                                       ! Type
  Construction,                           ! Line Item Type
  90.1-1999 Res B10 Roof IEAD,            ! Item Name
  ,                                       ! Object End Use Key
  ,                                       ! Quantity {dimensionless}
  49.208,                                 ! Material Cost {$}
  CostPerArea;                            ! Material Cost Units

