
OS:Version,
  {6e73c763-534f-48aa-8450-df7c63039134}, ! Handle
  0.9.3;                                  ! Version Identifier

OS:ComponentCost:LineItem,
  {c0375710-ba8c-4e05-94ca-68c5ab890d0b}, ! Handle
  90.1-2001 Nonres B5 Window Fixed,       ! Name
  ,                                       ! Type
  Construction,                           ! Line Item Type
  90.1-2001 Nonres B5 Window Fixed,       ! Item Name
  ,                                       ! Object End Use Key
  ,                                       ! Quantity {dimensionless}
  462.094,                                ! Material Cost {$}
  CostPerArea;                            ! Material Cost Units

OS:Construction,
  {8250072d-6f9f-4f95-ab19-27c500bbb821}, ! Handle
  90.1-2001 Nonres B5 Window Fixed,       ! Name
  ,                                       ! Surface Rendering Name
  {6bb41072-0ec6-4bcb-8481-999d2d928c35}; ! Layer 1

OS:WindowMaterial:Glazing,
  {6bb41072-0ec6-4bcb-8481-999d2d928c35}, ! Handle
  Theoretical Glass [2],                  ! Name
  SpectralAverage,                        ! Optical Data Type
  ,                                       ! Window Glass Spectral Data Set Name
  0.003,                                  ! Thickness {m}
  0.426406,                               ! Solar Transmittance at Normal Incidence
  0.523594,                               ! Front Side Solar Reflectance at Normal Incidence
  0.523594,                               ! Back Side Solar Reflectance at Normal Incidence
  0.469723,                               ! Visible Transmittance at Normal Incidence
  0.480277,                               ! Front Side Visible Reflectance at Normal Incidence
  0.480277,                               ! Back Side Visible Reflectance at Normal Incidence
  0,                                      ! Infrared Transmittance at Normal Incidence
  0.999,                                  ! Front Side Infrared Hemispherical Emissivity
  0.999,                                  ! Back Side Infrared Hemispherical Emissivity
  3.36874;                                ! Conductivity {W/m-K}

