
OS:Version,
  {fb5171a1-750d-4bf4-a63e-7f8c1d2a0f09}, ! Handle
  0.9.3;                                  ! Version Identifier

OS:Construction,
  {d3fadd72-51e2-4f8b-90d0-b90856061ade}, ! Handle
  90.1-2007 Res 3A Ext Wall Wood-Framed and Other, ! Name
  ,                                       ! Surface Rendering Name
  {6d78119c-ee58-43f1-bc83-5065032ccedb}, ! Layer 1
  {43637cc7-96ba-4f66-8f1d-83a5a64bbe64}, ! Layer 2
  {363c3e70-9c0e-49ff-947e-0ab851ecc277}; ! Layer 3

OS:Material,
  {6d78119c-ee58-43f1-bc83-5065032ccedb}, ! Handle
  Wood Siding,                            ! Name
  MediumSmooth,                           ! Roughness
  0.01,                                   ! Thickness {m}
  0.11,                                   ! Conductivity {W/m-K}
  544.62,                                 ! Density {kg/m3}
  1210,                                   ! Specific Heat {J/kg-K}
  0.9,                                    ! Thermal Absorptance
  0.78,                                   ! Solar Absorptance
  0.78;                                   ! Visible Absorptance

OS:Material,
  {43637cc7-96ba-4f66-8f1d-83a5a64bbe64}, ! Handle
  Wall Insulation [2],                    ! Name
  MediumRough,                            ! Roughness
  0.0746874,                              ! Thickness {m}
  0.045,                                  ! Conductivity {W/m-K}
  265,                                    ! Density {kg/m3}
  836.8,                                  ! Specific Heat {J/kg-K}
  0.9,                                    ! Thermal Absorptance
  0.7,                                    ! Solar Absorptance
  0.7;                                    ! Visible Absorptance

OS:Material,
  {363c3e70-9c0e-49ff-947e-0ab851ecc277}, ! Handle
  1/2IN Gypsum,                           ! Name
  Smooth,                                 ! Roughness
  0.01271,                                ! Thickness {m}
  0.16,                                   ! Conductivity {W/m-K}
  784.9,                                  ! Density {kg/m3}
  830,                                    ! Specific Heat {J/kg-K}
  0.9,                                    ! Thermal Absorptance
  0.92,                                   ! Solar Absorptance
  0.92;                                   ! Visible Absorptance

OS:ComponentCost:LineItem,
  {6342b3f8-ede1-4d9c-977b-a0f15aa32d6a}, ! Handle
  90.1-2007 Res 3A Ext Wall Wood-Framed and Other, ! Name
  ,                                       ! Type
  Construction,                           ! Line Item Type
  90.1-2007 Res 3A Ext Wall Wood-Framed and Other, ! Item Name
  ,                                       ! Object End Use Key
  ,                                       ! Quantity {dimensionless}
  73.056,                                 ! Material Cost {$}
  CostPerArea;                            ! Material Cost Units

OS:ComponentData,
  {2cabe85b-a1cc-46c1-9240-08983a3af721}, ! Handle
  Component Data 1,                       ! Name
  {dbdde476-5dfd-44ff-908a-5ba342d50e81}, ! UUID
  {5ba32385-c71a-4de0-af41-60fd76de1554}, ! Version UUID
  1363981845,                             ! Creation Timestamp
  1363981845,                             ! Version Timestamp
  {d3fadd72-51e2-4f8b-90d0-b90856061ade}, ! Name of Object 1
  {6d78119c-ee58-43f1-bc83-5065032ccedb}, ! Name of Object 2
  {43637cc7-96ba-4f66-8f1d-83a5a64bbe64}, ! Name of Object 3
  {363c3e70-9c0e-49ff-947e-0ab851ecc277}, ! Name of Object 4
  {6342b3f8-ede1-4d9c-977b-a0f15aa32d6a}; ! Name of Object 5

