
OS:Version,
  {c52c11af-4b30-491c-badf-8d3899d9eebd}, ! Handle
  0.9.3;                                  ! Version Identifier

OS:Construction,
  {557d4cd2-18d5-4983-9cea-e28600041f5e}, ! Handle
  90.1-2007 Res 3A Ext Wall Wood-Framed and Other, ! Name
  ,                                       ! Surface Rendering Name
  {47308e8c-db36-4f23-944c-59766ec1b521}, ! Layer 1
  {a7e4eee3-5bc3-48d8-914a-7ff2201841be}, ! Layer 2
  {c3c1be4b-d7ba-4e9d-810d-1bc39569f599}; ! Layer 3

OS:Material,
  {47308e8c-db36-4f23-944c-59766ec1b521}, ! Handle
  Wood Siding,                            ! Name
  MediumSmooth,                           ! Roughness
  0.01,                                   ! Thickness {m}
  0.11,                                   ! Conductivity {W/m-K}
  544.62,                                 ! Density {kg/m3}
  1210,                                   ! Specific Heat {J/kg-K}
  0.9,                                    ! Thermal Absorptance
  0.78,                                   ! Solar Absorptance
  0.78;                                   ! Visible Absorptance

OS:Material,
  {a7e4eee3-5bc3-48d8-914a-7ff2201841be}, ! Handle
  Wall Insulation [2],                    ! Name
  MediumRough,                            ! Roughness
  0.0746874,                              ! Thickness {m}
  0.045,                                  ! Conductivity {W/m-K}
  265,                                    ! Density {kg/m3}
  836.8,                                  ! Specific Heat {J/kg-K}
  0.9,                                    ! Thermal Absorptance
  0.7,                                    ! Solar Absorptance
  0.7;                                    ! Visible Absorptance

OS:Material,
  {c3c1be4b-d7ba-4e9d-810d-1bc39569f599}, ! Handle
  1/2IN Gypsum,                           ! Name
  Smooth,                                 ! Roughness
  0.01271,                                ! Thickness {m}
  0.16,                                   ! Conductivity {W/m-K}
  784.9,                                  ! Density {kg/m3}
  830,                                    ! Specific Heat {J/kg-K}
  0.9,                                    ! Thermal Absorptance
  0.92,                                   ! Solar Absorptance
  0.92;                                   ! Visible Absorptance

OS:ComponentCost:LineItem,
  {fb36e55a-d793-43ce-82e6-228ecb02498e}, ! Handle
  90.1-2007 Res 3A Ext Wall Wood-Framed and Other, ! Name
  ,                                       ! Type
  Construction,                           ! Line Item Type
  90.1-2007 Res 3A Ext Wall Wood-Framed and Other, ! Item Name
  ,                                       ! Object End Use Key
  ,                                       ! Quantity {dimensionless}
  73.056,                                 ! Material Cost {$}
  CostPerArea;                            ! Material Cost Units

