
OS:Version,
  {367dc310-dabe-11e7-9296-cec278b6b50a}, ! Handle
  0.9.3;                                  ! Version Identifier

OS:Construction,
  {367dc4e6-dabe-11e7-9296-cec278b6b50a}, ! Handle
  U-W DE MFH ExtWall -1918 8,		  ! Name
  ,                                       ! Surface Rendering Name
  {367dc810-dabe-11e7-9296-cec278b6b50a}, ! Layer 1
  {367dc9e6-dabe-11e7-9296-cec278b6b50a}, ! Layer 2

OS:Material,
  {367dc810-dabe-11e7-9296-cec278b6b50a}, ! Handle	
  Gips-Kalk Innenputz 1.5cm,              ! Name
  Smooth,                                 ! Roughness
  0.015,                                  ! Thickness {m}
  0.7,                                    ! Conductivity {W/m-K}
  1100,                                   ! Density {kg/m3}
  1010,                                   ! Specific Heat {J/kg-K}
  0.3,                                    ! Thermal Absorptance
  0.3,                                    ! Solar Absorptance
  0.3;                                    ! Visible Absorptance

OS:Material,
  {367dc9e6-dabe-11e7-9296-cec278b6b50a}, ! Handle		
  Naturstein 60cm,                        ! Name
  Smooth,                                 ! Roughness
  0.6,                                    ! Thickness {m}
  0.55,                                   ! Conductivity {W/m-K}
  1800,                                   ! Density {kg/m3}
  1000,                                   ! Specific Heat {J/kg-K}
  0.7,                                    ! Thermal Absorptance
  0.7,                                    ! Solar Absorptance
  0.7;                                    ! Visible Absorptance

OS:ComponentCost:LineItem,
  {367dcb94-dabe-11e7-9296-cec278b6b50a}, ! Handle
  U-W DE MFH ExtWall -1918 8,             ! Name
  ,                                       ! Type
  Construction,                           ! Line Item Type
  U-W DE MFH ExtWall -1918 8,             ! Item Name
  ,                                       ! Object End Use Key
  ,                                       ! Quantity {dimensionless}
  0.0,                                    ! Material Cost {$}
  CostPerArea;                            ! Material Cost Units

OS:ComponentData,
  {367dceb4-dabe-11e7-9296-cec278b6b50a}, ! Handle
  Component Data 1,                       ! Name
  {367dd116-dabe-11e7-9296-cec278b6b50a}, ! UUID
  {367dd490-dabe-11e7-9296-cec278b6b50a}, ! Version UUID
  1363981182,                             ! Creation Timestamp
  1363981182,                             ! Version Timestamp
  {367dc4e6-dabe-11e7-9296-cec278b6b50a}, ! Name of Object 1
  {367dc810-dabe-11e7-9296-cec278b6b50a}, ! Name of Object 2
  {367dc9e6-dabe-11e7-9296-cec278b6b50a}, ! Name of Object 3
  {367dcb94-dabe-11e7-9296-cec278b6b50a}, ! Name of Object 4
  
