
OS:Version,
  {5c7ca6fa-a9aa-4fee-8236-7d2820446942}, ! Handle
  0.9.3;                                  ! Version Identifier

OS:ComponentCost:LineItem,
  {43439eda-2b85-46a3-881c-17020b63667c}, ! Handle
  AEDG SHC Nonres 1A Skylight Glass Skylight with Curb, ! Name
  ,                                       ! Type
  Construction,                           ! Line Item Type
  AEDG SHC Nonres 1A Skylight Glass Skylight with Curb, ! Item Name
  ,                                       ! Object End Use Key
  ,                                       ! Quantity {dimensionless}
  0,                                      ! Material Cost {$}
  CostPerArea;                            ! Material Cost Units

OS:Construction,
  {e354f2b2-4561-4001-80a3-ce91e6165f1d}, ! Handle
  AEDG SHC Nonres 1A Skylight Glass Skylight with Curb, ! Name
  ,                                       ! Surface Rendering Name
  {2fb2cba7-3668-47a1-9f75-cc57445db468}; ! Layer 1

OS:WindowMaterial:Glazing,
  {2fb2cba7-3668-47a1-9f75-cc57445db468}, ! Handle
  Theoretical Glass [238],                ! Name
  SpectralAverage,                        ! Optical Data Type
  ,                                       ! Window Glass Spectral Data Set Name
  0.003,                                  ! Thickness {m}
  0.334238,                               ! Solar Transmittance at Normal Incidence
  0.615762,                               ! Front Side Solar Reflectance at Normal Incidence
  0.615762,                               ! Back Side Solar Reflectance at Normal Incidence
  0.3507,                                 ! Visible Transmittance at Normal Incidence
  0.5993,                                 ! Front Side Visible Reflectance at Normal Incidence
  0.5993,                                 ! Back Side Visible Reflectance at Normal Incidence
  0,                                      ! Infrared Transmittance at Normal Incidence
  0.9,                                    ! Front Side Infrared Hemispherical Emissivity
  0.9,                                    ! Back Side Infrared Hemispherical Emissivity
  0.0414918;                              ! Conductivity {W/m-K}

