
OS:Version,
  {58a8df6f-7390-41df-aa29-ea6bb421ff02}, ! Handle
  0.9.3;                                  ! Version Identifier

OS:Material,
  {837b55ff-3731-4788-92f9-498485b43eb7}, ! Handle
  Metal Siding,                           ! Name
  Smooth,                                 ! Roughness
  0.0015,                                 ! Thickness {m}
  44.96,                                  ! Conductivity {W/m-K}
  7688.86,                                ! Density {kg/m3}
  410,                                    ! Specific Heat {J/kg-K}
  0.9,                                    ! Thermal Absorptance
  0.2,                                    ! Solar Absorptance
  0.2;                                    ! Visible Absorptance

OS:Construction,
  {33b34275-1632-4df8-ae5f-9f9263c79300}, ! Handle
  90.1-2004 Nonres 7A Ext Wall Metal Building, ! Name
  ,                                       ! Surface Rendering Name
  {837b55ff-3731-4788-92f9-498485b43eb7}, ! Layer 1
  {e076845f-397f-4546-8391-4a24b6029a81}, ! Layer 2
  {876ab36c-b9e3-4da3-847b-17da2034a82d}; ! Layer 3

OS:Material,
  {e076845f-397f-4546-8391-4a24b6029a81}, ! Handle
  Wall Insulation [9],                    ! Name
  MediumRough,                            ! Roughness
  0.128642,                               ! Thickness {m}
  0.045,                                  ! Conductivity {W/m-K}
  265,                                    ! Density {kg/m3}
  836.8,                                  ! Specific Heat {J/kg-K}
  0.9,                                    ! Thermal Absorptance
  0.7,                                    ! Solar Absorptance
  0.7;                                    ! Visible Absorptance

OS:Material,
  {876ab36c-b9e3-4da3-847b-17da2034a82d}, ! Handle
  1/2IN Gypsum,                           ! Name
  Smooth,                                 ! Roughness
  0.01271,                                ! Thickness {m}
  0.16,                                   ! Conductivity {W/m-K}
  784.9,                                  ! Density {kg/m3}
  830,                                    ! Specific Heat {J/kg-K}
  0.9,                                    ! Thermal Absorptance
  0.92,                                   ! Solar Absorptance
  0.92;                                   ! Visible Absorptance

OS:ComponentCost:LineItem,
  {a4e31bd7-90b2-479b-b82c-36eb9012807a}, ! Handle
  90.1-2004 Nonres 7A Ext Wall Metal Building, ! Name
  ,                                       ! Type
  Construction,                           ! Line Item Type
  90.1-2004 Nonres 7A Ext Wall Metal Building, ! Item Name
  ,                                       ! Object End Use Key
  ,                                       ! Quantity {dimensionless}
  107.698,                                ! Material Cost {$}
  CostPerArea;                            ! Material Cost Units

