
OS:Version,
  {607d940c-64b2-45c3-aa2b-90690663fdba}, ! Handle
  0.9.3;                                  ! Version Identifier

OS:Construction,
  {6ff7ea18-4db5-408f-b5a5-b5619264a5f0}, ! Handle
  90.1-2007 Nonres 7A Skylight without Curb, ! Name
  ,                                       ! Surface Rendering Name
  {468e5f2b-5f22-423c-a143-d485f2567871}; ! Layer 1

OS:WindowMaterial:Glazing,
  {468e5f2b-5f22-423c-a143-d485f2567871}, ! Handle
  Theoretical Glass [192],                ! Name
  SpectralAverage,                        ! Optical Data Type
  ,                                       ! Window Glass Spectral Data Set Name
  0.003,                                  ! Thickness {m}
  0.670707,                               ! Solar Transmittance at Normal Incidence
  0.279293,                               ! Front Side Solar Reflectance at Normal Incidence
  0.279293,                               ! Back Side Solar Reflectance at Normal Incidence
  0.679844,                               ! Visible Transmittance at Normal Incidence
  0.270156,                               ! Front Side Visible Reflectance at Normal Incidence
  0.270156,                               ! Back Side Visible Reflectance at Normal Incidence
  0,                                      ! Infrared Transmittance at Normal Incidence
  0.9,                                    ! Front Side Infrared Hemispherical Emissivity
  0.9,                                    ! Back Side Infrared Hemispherical Emissivity
  0.03026;                                ! Conductivity {W/m-K}

OS:ComponentCost:LineItem,
  {0269fa3f-13fe-4091-818a-83521900c865}, ! Handle
  90.1-2007 Nonres 7A Skylight without Curb, ! Name
  ,                                       ! Type
  Construction,                           ! Line Item Type
  90.1-2007 Nonres 7A Skylight without Curb, ! Item Name
  ,                                       ! Object End Use Key
  ,                                       ! Quantity {dimensionless}
  494.051,                                ! Material Cost {$}
  CostPerArea;                            ! Material Cost Units

