
OS:Version,
  {b79718e6-eccf-4664-b58a-94e53379e5d5}, ! Handle
  0.9.3;                                  ! Version Identifier

OS:Material,
  {ae83722b-ac71-4c20-a88e-b2b37678e368}, ! Handle
  GP01 1/2 GYPSUM 1,                      ! Name
  Smooth,                                 ! Roughness
  0.01271,                                ! Thickness {m}
  0.16,                                   ! Conductivity {W/m-K}
  800,                                    ! Density {kg/m3}
  1090,                                   ! Specific Heat {J/kg-K}
  0.9,                                    ! Thermal Absorptance
  0.7,                                    ! Solar Absorptance
  0.5;                                    ! Visible Absorptance

OS:Material,
  {20e3ada2-c893-4f9a-9080-c967f9c0980c}, ! Handle
  GP01 1/2 GYPSUM,                        ! Name
  Smooth,                                 ! Roughness
  0.01271,                                ! Thickness {m}
  0.16,                                   ! Conductivity {W/m-K}
  800,                                    ! Density {kg/m3}
  1090,                                   ! Specific Heat {J/kg-K}
  0.9,                                    ! Thermal Absorptance
  0.7,                                    ! Solar Absorptance
  0.5;                                    ! Visible Absorptance

OS:ComponentCost:LineItem,
  {96b59096-4af9-4c9f-b282-f8b1595c3b5f}, ! Handle
  AEDG SHC Nonres 6B Int Wall,            ! Name
  ,                                       ! Type
  Construction,                           ! Line Item Type
  AEDG SHC Nonres 6B Int Wall,            ! Item Name
  ,                                       ! Object End Use Key
  ,                                       ! Quantity {dimensionless}
  0,                                      ! Material Cost {$}
  CostPerArea;                            ! Material Cost Units

OS:Construction,
  {b20b6350-0430-45f8-9661-877dc07cc06f}, ! Handle
  AEDG SHC Nonres 6B Int Wall,            ! Name
  ,                                       ! Surface Rendering Name
  {20e3ada2-c893-4f9a-9080-c967f9c0980c}, ! Layer 1
  {20e3ada2-c893-4f9a-9080-c967f9c0980c}; ! Layer 2

