
! 
OS:Version,
  {8503bb35-3288-4176-9c41-752f3d976c4b}, !- Handle
  1.13.0;                                 !- Version Identifier


! 
OS:Material,
  {cee8222d-3904-4fc6-bbbd-9d8605e10d21}, !- Handle
  Aislamiento: SATE
WEBER: weber.therm placa XPS 80 (0.080 m)
R: 2.4 m2K/W,                             !- Name
  MediumRough,                                 !- Roughness
  0.08,                                    !- Thickness {m}
  0.034,                                    !- Conductivity {W/m-K}
  30.0,                                    !- Density {kg/m3}
  800.0,                                    !- Specific Heat {J/kg-K}
  0.9,                                    !- Thermal Absorptance
  0.6,                                    !- Solar Absorptance
  0.6;                                    !- Visible Absorptance

