
OS:Version,
  {3be49113-5ef5-4359-b126-5c4713618212}, ! Handle
  0.9.3;                                  ! Version Identifier

OS:Construction,
  {9166087d-a5b9-466f-b8b8-f2f145c62c06}, ! Handle
  90.1-2004 Nonres 6B Exposed Floor Mass, ! Name
  ,                                       ! Surface Rendering Name
  {90aa6f34-e495-445b-abdf-d6e212c30eb0}, ! Layer 1
  {5e4d4176-d016-4be4-a438-88f70f0dcde9}, ! Layer 2
  {7786a71e-47ac-423b-a972-8db449c26d4f}; ! Layer 3

OS:Material,
  {90aa6f34-e495-445b-abdf-d6e212c30eb0}, ! Handle
  Floor Insulation [2],                   ! Name
  MediumRough,                            ! Roughness
  0.0635689,                              ! Thickness {m}
  0.045,                                  ! Conductivity {W/m-K}
  265,                                    ! Density {kg/m3}
  836.8,                                  ! Specific Heat {J/kg-K}
  0.9,                                    ! Thermal Absorptance
  0.7,                                    ! Solar Absorptance
  0.7;                                    ! Visible Absorptance

OS:Material,
  {5e4d4176-d016-4be4-a438-88f70f0dcde9}, ! Handle
  MAT-CC05 8 HW CONCRETE,                 ! Name
  Rough,                                  ! Roughness
  0.20321,                                ! Thickness {m}
  1.311,                                  ! Conductivity {W/m-K}
  2240,                                   ! Density {kg/m3}
  836.8,                                  ! Specific Heat {J/kg-K}
  0.9,                                    ! Thermal Absorptance
  0.7,                                    ! Solar Absorptance
  0.7;                                    ! Visible Absorptance

OS:Material:NoMass,
  {7786a71e-47ac-423b-a972-8db449c26d4f}, ! Handle
  CP02 CARPET PAD,                        ! Name
  VeryRough,                              ! Roughness
  0.21648,                                ! Thermal Resistance {m2-K/W}
  0.9,                                    ! Thermal Absorptance
  0.7,                                    ! Solar Absorptance
  0.8;                                    ! Visible Absorptance

OS:ComponentCost:LineItem,
  {28925819-3bc3-496c-a41b-62b1937e9d11}, ! Handle
  90.1-2004 Nonres 6B Exposed Floor Mass, ! Name
  ,                                       ! Type
  Construction,                           ! Line Item Type
  90.1-2004 Nonres 6B Exposed Floor Mass, ! Item Name
  ,                                       ! Object End Use Key
  ,                                       ! Quantity {dimensionless}
  49.612,                                 ! Material Cost {$}
  CostPerArea;                            ! Material Cost Units

