
OS:Version,
  {aedcc230-3c0d-4d75-b0c8-993700783962}, ! Handle
  0.9.3;                                  ! Version Identifier

OS:WindowMaterial:Glazing,
  {22c91e2e-0e44-4cb5-ad94-d72265de0166}, ! Handle
  Theoretical Glass [681],                ! Name
  SpectralAverage,                        ! Optical Data Type
  ,                                       ! Window Glass Spectral Data Set Name
  0.003,                                  ! Thickness {m}
  0.390498,                               ! Solar Transmittance at Normal Incidence
  0.559502,                               ! Front Side Solar Reflectance at Normal Incidence
  0.559502,                               ! Back Side Solar Reflectance at Normal Incidence
  0.400004,                               ! Visible Transmittance at Normal Incidence
  0.549996,                               ! Front Side Visible Reflectance at Normal Incidence
  0.549996,                               ! Back Side Visible Reflectance at Normal Incidence
  0,                                      ! Infrared Transmittance at Normal Incidence
  0.9,                                    ! Front Side Infrared Hemispherical Emissivity
  0.9,                                    ! Back Side Infrared Hemispherical Emissivity
  0.0498596;                              ! Conductivity {W/m-K}

OS:Construction,
  {ad209a24-edef-47a9-9d66-9534b0cb1dab}, ! Handle
  Title 24-2008 Nonres 6 Skylight without Curb, ! Name
  ,                                       ! Surface Rendering Name
  {22c91e2e-0e44-4cb5-ad94-d72265de0166}; ! Layer 1

OS:ComponentCost:LineItem,
  {33737272-9773-476c-a7d7-936f47ab1c4c}, ! Handle
  Title 24-2008 Nonres 6 Skylight without Curb, ! Name
  ,                                       ! Type
  Construction,                           ! Line Item Type
  Title 24-2008 Nonres 6 Skylight without Curb, ! Item Name
  ,                                       ! Object End Use Key
  ,                                       ! Quantity {dimensionless}
  511.59,                                 ! Material Cost {$}
  CostPerArea;                            ! Material Cost Units

