
OS:Version,
  {b688149c-5f14-470d-b904-8971464beebe}, ! Handle
  0.9.3;                                  ! Version Identifier

OS:ComponentCost:LineItem,
  {66117be2-770e-491f-9522-0e20f3e604da}, ! Handle
  90.1 Windows Window Fixed 2126 Mtl-HptMpr-Std-ClrPye, ! Name
  ,                                       ! Type
  Construction,                           ! Line Item Type
  90.1 Windows Window Fixed 2126 Mtl-HptMpr-Std-ClrPye, ! Item Name
  ,                                       ! Object End Use Key
  ,                                       ! Quantity {dimensionless}
  0,                                      ! Material Cost {$}
  CostPerArea;                            ! Material Cost Units

OS:Construction,
  {c49f8e61-96ff-4d74-a249-3b64be0d2ef5}, ! Handle
  90.1 Windows Window Fixed 2126 Mtl-HptMpr-Std-ClrPye, ! Name
  ,                                       ! Surface Rendering Name
  {41396668-0c5d-411d-9754-e5e5cd4dc956}; ! Layer 1

OS:WindowMaterial:Glazing,
  {41396668-0c5d-411d-9754-e5e5cd4dc956}, ! Handle
  Theoretical Glass [464],                ! Name
  SpectralAverage,                        ! Optical Data Type
  ,                                       ! Window Glass Spectral Data Set Name
  0.003,                                  ! Thickness {m}
  0.283555,                               ! Solar Transmittance at Normal Incidence
  0.666445,                               ! Front Side Solar Reflectance at Normal Incidence
  0.666445,                               ! Back Side Solar Reflectance at Normal Incidence
  0.320998,                               ! Visible Transmittance at Normal Incidence
  0.629002,                               ! Front Side Visible Reflectance at Normal Incidence
  0.629002,                               ! Back Side Visible Reflectance at Normal Incidence
  0,                                      ! Infrared Transmittance at Normal Incidence
  0.9,                                    ! Front Side Infrared Hemispherical Emissivity
  0.9,                                    ! Back Side Infrared Hemispherical Emissivity
  0.0220475;                              ! Conductivity {W/m-K}

