
OS:Version,
  {146e38ab-8961-4e03-82da-4ed866a28aeb}, ! Handle
  0.9.3;                                  ! Version Identifier

OS:Construction,
  {26e2ec5f-eb26-404d-bbf4-54bccd2034ac}, ! Handle
  90.1 Windows Window Fixed 2126 Mtl-HptMpr-Std-ClrPye, ! Name
  ,                                       ! Surface Rendering Name
  {f56c9e20-2d5d-4c7c-86af-74808c5f9804}; ! Layer 1

OS:WindowMaterial:Glazing,
  {f56c9e20-2d5d-4c7c-86af-74808c5f9804}, ! Handle
  Theoretical Glass [464],                ! Name
  SpectralAverage,                        ! Optical Data Type
  ,                                       ! Window Glass Spectral Data Set Name
  0.003,                                  ! Thickness {m}
  0.283555,                               ! Solar Transmittance at Normal Incidence
  0.666445,                               ! Front Side Solar Reflectance at Normal Incidence
  0.666445,                               ! Back Side Solar Reflectance at Normal Incidence
  0.320998,                               ! Visible Transmittance at Normal Incidence
  0.629002,                               ! Front Side Visible Reflectance at Normal Incidence
  0.629002,                               ! Back Side Visible Reflectance at Normal Incidence
  0,                                      ! Infrared Transmittance at Normal Incidence
  0.9,                                    ! Front Side Infrared Hemispherical Emissivity
  0.9,                                    ! Back Side Infrared Hemispherical Emissivity
  0.0220475;                              ! Conductivity {W/m-K}

OS:ComponentCost:LineItem,
  {1b70d3ae-8290-4462-a0f7-4abd77a11ff3}, ! Handle
  90.1 Windows Window Fixed 2126 Mtl-HptMpr-Std-ClrPye, ! Name
  ,                                       ! Type
  Construction,                           ! Line Item Type
  90.1 Windows Window Fixed 2126 Mtl-HptMpr-Std-ClrPye, ! Item Name
  ,                                       ! Object End Use Key
  ,                                       ! Quantity {dimensionless}
  0,                                      ! Material Cost {$}
  CostPerArea;                            ! Material Cost Units

OS:ComponentData,
  {0be23378-2ba9-4a4f-a679-f1149052d103}, ! Handle
  Component Data 1,                       ! Name
  {029b648f-9e24-4088-984f-f29358787a74}, ! UUID
  {2e9ab77a-57b4-4911-a62c-c614e8b09c53}, ! Version UUID
  1363981021,                             ! Creation Timestamp
  1363981021,                             ! Version Timestamp
  {26e2ec5f-eb26-404d-bbf4-54bccd2034ac}, ! Name of Object 1
  {f56c9e20-2d5d-4c7c-86af-74808c5f9804}, ! Name of Object 2
  {1b70d3ae-8290-4462-a0f7-4abd77a11ff3}; ! Name of Object 3

