
OS:Version,
  {a1367d81-02de-411d-a6df-02ad2544e13d}, ! Handle
  0.9.3;                                  ! Version Identifier

OS:Construction,
  {89ff2418-e376-4aef-813a-4964e64ff836}, ! Handle
  90.1-2001 Nonres B20 Roof Metal Building, ! Name
  ,                                       ! Surface Rendering Name
  {40d84980-3797-48d7-b6db-2689055ea188}, ! Layer 1
  {052a67d2-2105-4ae2-8e6f-c4f2779670f6}; ! Layer 2

OS:Material,
  {40d84980-3797-48d7-b6db-2689055ea188}, ! Handle
  Metal Roofing,                          ! Name
  MediumSmooth,                           ! Roughness
  0.001524,                               ! Thickness {m}
  45.006,                                 ! Conductivity {W/m-K}
  7680,                                   ! Density {kg/m3}
  418.4,                                  ! Specific Heat {J/kg-K}
  0.9,                                    ! Thermal Absorptance
  0.7,                                    ! Solar Absorptance
  0.3;                                    ! Visible Absorptance

OS:Material,
  {052a67d2-2105-4ae2-8e6f-c4f2779670f6}, ! Handle
  Roof Insulation [1],                    ! Name
  MediumRough,                            ! Roughness
  0.123533,                               ! Thickness {m}
  0.049,                                  ! Conductivity {W/m-K}
  265,                                    ! Density {kg/m3}
  836.8,                                  ! Specific Heat {J/kg-K}
  0.9,                                    ! Thermal Absorptance
  0.7,                                    ! Solar Absorptance
  0.7;                                    ! Visible Absorptance

OS:ComponentCost:LineItem,
  {a1ded4b5-ba50-463d-9995-e83b3217d6e3}, ! Handle
  90.1-2001 Nonres B20 Roof Metal Building, ! Name
  ,                                       ! Type
  Construction,                           ! Line Item Type
  90.1-2001 Nonres B20 Roof Metal Building, ! Item Name
  ,                                       ! Object End Use Key
  ,                                       ! Quantity {dimensionless}
  38.206,                                 ! Material Cost {$}
  CostPerArea;                            ! Material Cost Units

