
OS:Version,
  {0aee7872-b9a9-492f-a164-8258ec1e0aca}, ! Handle
  0.9.3;                                  ! Version Identifier

OS:Material,
  {b65a0159-c512-4c08-8d9a-aa04ab63a2f2}, ! Handle
  Metal Siding,                           ! Name
  Smooth,                                 ! Roughness
  0.0015,                                 ! Thickness {m}
  44.96,                                  ! Conductivity {W/m-K}
  7688.86,                                ! Density {kg/m3}
  410,                                    ! Specific Heat {J/kg-K}
  0.9,                                    ! Thermal Absorptance
  0.2,                                    ! Solar Absorptance
  0.2;                                    ! Visible Absorptance

OS:Construction,
  {97dd67db-ef88-47ed-af38-96742c556b67}, ! Handle
  90.1-1999 Nonres B23 Ext Wall Metal Building, ! Name
  ,                                       ! Surface Rendering Name
  {b65a0159-c512-4c08-8d9a-aa04ab63a2f2}, ! Layer 1
  {fdf1c5a1-dbc4-461f-86d7-38acd30c8a05}, ! Layer 2
  {1fc444e6-122c-4718-b95b-b8bfa0d21de8}; ! Layer 3

OS:Material,
  {fdf1c5a1-dbc4-461f-86d7-38acd30c8a05}, ! Handle
  Wall Insulation [9],                    ! Name
  MediumRough,                            ! Roughness
  0.128642,                               ! Thickness {m}
  0.045,                                  ! Conductivity {W/m-K}
  265,                                    ! Density {kg/m3}
  836.8,                                  ! Specific Heat {J/kg-K}
  0.9,                                    ! Thermal Absorptance
  0.7,                                    ! Solar Absorptance
  0.7;                                    ! Visible Absorptance

OS:Material,
  {1fc444e6-122c-4718-b95b-b8bfa0d21de8}, ! Handle
  1/2IN Gypsum,                           ! Name
  Smooth,                                 ! Roughness
  0.01271,                                ! Thickness {m}
  0.16,                                   ! Conductivity {W/m-K}
  784.9,                                  ! Density {kg/m3}
  830,                                    ! Specific Heat {J/kg-K}
  0.9,                                    ! Thermal Absorptance
  0.92,                                   ! Solar Absorptance
  0.92;                                   ! Visible Absorptance

OS:ComponentCost:LineItem,
  {98f1a0eb-b67f-4e61-bcd6-e6f365ede669}, ! Handle
  90.1-1999 Nonres B23 Ext Wall Metal Building, ! Name
  ,                                       ! Type
  Construction,                           ! Line Item Type
  90.1-1999 Nonres B23 Ext Wall Metal Building, ! Item Name
  ,                                       ! Object End Use Key
  ,                                       ! Quantity {dimensionless}
  107.698,                                ! Material Cost {$}
  CostPerArea;                            ! Material Cost Units

