
OS:Version,
  {f8a492d1-d8a0-45e2-b908-d0464ac5e856}, ! Handle
  0.9.3;                                  ! Version Identifier

OS:Construction,
  {df157d06-44cb-4987-b1ae-7bab33fa3f8b}, ! Handle
  90.1-1999 Nonres B23 Ext Wall Metal Building, ! Name
  ,                                       ! Surface Rendering Name
  {99488a7f-a861-48b6-9e07-dc4f8e3fbce9}, ! Layer 1
  {794f6bce-eebf-4840-8309-79910b644104}, ! Layer 2
  {80c6beea-ba4f-4af5-a965-85dd9bd29e33}; ! Layer 3

OS:Material,
  {99488a7f-a861-48b6-9e07-dc4f8e3fbce9}, ! Handle
  Metal Siding,                           ! Name
  Smooth,                                 ! Roughness
  0.0015,                                 ! Thickness {m}
  44.96,                                  ! Conductivity {W/m-K}
  7688.86,                                ! Density {kg/m3}
  410,                                    ! Specific Heat {J/kg-K}
  0.9,                                    ! Thermal Absorptance
  0.2,                                    ! Solar Absorptance
  0.2;                                    ! Visible Absorptance

OS:Material,
  {794f6bce-eebf-4840-8309-79910b644104}, ! Handle
  Wall Insulation [9],                    ! Name
  MediumRough,                            ! Roughness
  0.128642,                               ! Thickness {m}
  0.045,                                  ! Conductivity {W/m-K}
  265,                                    ! Density {kg/m3}
  836.8,                                  ! Specific Heat {J/kg-K}
  0.9,                                    ! Thermal Absorptance
  0.7,                                    ! Solar Absorptance
  0.7;                                    ! Visible Absorptance

OS:Material,
  {80c6beea-ba4f-4af5-a965-85dd9bd29e33}, ! Handle
  1/2IN Gypsum,                           ! Name
  Smooth,                                 ! Roughness
  0.01271,                                ! Thickness {m}
  0.16,                                   ! Conductivity {W/m-K}
  784.9,                                  ! Density {kg/m3}
  830,                                    ! Specific Heat {J/kg-K}
  0.9,                                    ! Thermal Absorptance
  0.92,                                   ! Solar Absorptance
  0.92;                                   ! Visible Absorptance

OS:ComponentCost:LineItem,
  {44563b01-1ad0-4589-8d13-2b0a36cd6dad}, ! Handle
  90.1-1999 Nonres B23 Ext Wall Metal Building, ! Name
  ,                                       ! Type
  Construction,                           ! Line Item Type
  90.1-1999 Nonres B23 Ext Wall Metal Building, ! Item Name
  ,                                       ! Object End Use Key
  ,                                       ! Quantity {dimensionless}
  107.698,                                ! Material Cost {$}
  CostPerArea;                            ! Material Cost Units

OS:ComponentData,
  {1cb8eb28-de37-4909-a3b2-00990e179250}, ! Handle
  Component Data 1,                       ! Name
  {d5fbf865-14e6-44e9-9266-75b40dd2ce2d}, ! UUID
  {4619bc95-87ae-4e5a-9481-48ef6cc06763}, ! Version UUID
  1363981143,                             ! Creation Timestamp
  1363981143,                             ! Version Timestamp
  {df157d06-44cb-4987-b1ae-7bab33fa3f8b}, ! Name of Object 1
  {99488a7f-a861-48b6-9e07-dc4f8e3fbce9}, ! Name of Object 2
  {794f6bce-eebf-4840-8309-79910b644104}, ! Name of Object 3
  {80c6beea-ba4f-4af5-a965-85dd9bd29e33}, ! Name of Object 4
  {44563b01-1ad0-4589-8d13-2b0a36cd6dad}; ! Name of Object 5

