
OS:Version,
  {b7bcb742-cdd9-478d-83e4-f702f6375f5e}, ! Handle
  0.9.3;                                  ! Version Identifier

OS:Construction,
  {84367f28-5bf7-47e3-adc4-772722bba480}, ! Handle
  189.1-2009 Res 4B Door Swinging,        ! Name
  ,                                       ! Surface Rendering Name
  {bad6b21c-5ece-4247-86d8-a57f18e4dab7}, ! Layer 1
  {47917183-3251-4148-9cad-7247d5f6e6fc}, ! Layer 2
  {1add4a51-1a91-4707-8a04-ee7892c6f9c3}; ! Layer 3

OS:Material,
  {bad6b21c-5ece-4247-86d8-a57f18e4dab7}, ! Handle
  METAL Door Medium 18Ga_1,               ! Name
  Smooth,                                 ! Roughness
  0.0013106,                              ! Thickness {m}
  45.3149,                                ! Conductivity {W/m-K}
  7833.03,                                ! Density {kg/m3}
  502.08,                                 ! Specific Heat {J/kg-K}
  0.8,                                    ! Thermal Absorptance
  0.5,                                    ! Solar Absorptance
  0.5;                                    ! Visible Absorptance

OS:Material:NoMass,
  {47917183-3251-4148-9cad-7247d5f6e6fc}, ! Handle
  AIR [4],                                ! Name
  Smooth,                                 ! Roughness
  0.293129,                               ! Thermal Resistance {m2-K/W}
  0.8,                                    ! Thermal Absorptance
  0.5,                                    ! Solar Absorptance
  0.5;                                    ! Visible Absorptance

OS:Material,
  {1add4a51-1a91-4707-8a04-ee7892c6f9c3}, ! Handle
  METAL Door Medium 18Ga_2,               ! Name
  Smooth,                                 ! Roughness
  0.0013106,                              ! Thickness {m}
  45.3149,                                ! Conductivity {W/m-K}
  7833.03,                                ! Density {kg/m3}
  502.08,                                 ! Specific Heat {J/kg-K}
  0.8,                                    ! Thermal Absorptance
  0.5,                                    ! Solar Absorptance
  0.5;                                    ! Visible Absorptance

OS:ComponentCost:LineItem,
  {4dc98a91-dece-4ba6-9017-d278d3f256c7}, ! Handle
  189.1-2009 Res 4B Door Swinging,        ! Name
  ,                                       ! Type
  Construction,                           ! Line Item Type
  189.1-2009 Res 4B Door Swinging,        ! Item Name
  ,                                       ! Object End Use Key
  ,                                       ! Quantity {dimensionless}
  0,                                      ! Material Cost {$}
  CostPerArea;                            ! Material Cost Units

OS:ComponentData,
  {0726dc88-983d-4ccd-9047-09ca4aebbf3a}, ! Handle
  Component Data 1,                       ! Name
  {37dd855f-1d4c-4a10-9bbc-a6919e9b1c20}, ! UUID
  {55414185-cc72-485a-a3cb-d701e160d833}, ! Version UUID
  1363980973,                             ! Creation Timestamp
  1363980973,                             ! Version Timestamp
  {84367f28-5bf7-47e3-adc4-772722bba480}, ! Name of Object 1
  {bad6b21c-5ece-4247-86d8-a57f18e4dab7}, ! Name of Object 2
  {47917183-3251-4148-9cad-7247d5f6e6fc}, ! Name of Object 3
  {1add4a51-1a91-4707-8a04-ee7892c6f9c3}, ! Name of Object 4
  {4dc98a91-dece-4ba6-9017-d278d3f256c7}; ! Name of Object 5

