
OS:Version,
  {5795653f-64ff-4ef3-befa-295a482f1dd5}, ! Handle
  0.9.3;                                  ! Version Identifier

OS:Construction,
  {308414b0-b86a-4079-81d9-245ee9fd62ef}, ! Handle
  Title 24-2005 Nonres 2 Ext Wall Wood-Framed and Other, ! Name
  ,                                       ! Surface Rendering Name
  {86d02c93-cb7c-4b22-951e-4352e860eeba}, ! Layer 1
  {df547eb1-85aa-4714-abbc-af0b9a835759}, ! Layer 2
  {25cb928b-96bf-4432-b94b-45d37ac846f1}; ! Layer 3

OS:Material,
  {86d02c93-cb7c-4b22-951e-4352e860eeba}, ! Handle
  Wood Siding,                            ! Name
  MediumSmooth,                           ! Roughness
  0.01,                                   ! Thickness {m}
  0.11,                                   ! Conductivity {W/m-K}
  544.62,                                 ! Density {kg/m3}
  1210,                                   ! Specific Heat {J/kg-K}
  0.9,                                    ! Thermal Absorptance
  0.78,                                   ! Solar Absorptance
  0.78;                                   ! Visible Absorptance

OS:Material,
  {df547eb1-85aa-4714-abbc-af0b9a835759}, ! Handle
  Wall Insulation [156],                  ! Name
  MediumRough,                            ! Roughness
  0.0633071,                              ! Thickness {m}
  0.045,                                  ! Conductivity {W/m-K}
  265,                                    ! Density {kg/m3}
  836.8,                                  ! Specific Heat {J/kg-K}
  0.9,                                    ! Thermal Absorptance
  0.7,                                    ! Solar Absorptance
  0.7;                                    ! Visible Absorptance

OS:Material,
  {25cb928b-96bf-4432-b94b-45d37ac846f1}, ! Handle
  1/2IN Gypsum,                           ! Name
  Smooth,                                 ! Roughness
  0.01271,                                ! Thickness {m}
  0.16,                                   ! Conductivity {W/m-K}
  784.9,                                  ! Density {kg/m3}
  830,                                    ! Specific Heat {J/kg-K}
  0.9,                                    ! Thermal Absorptance
  0.92,                                   ! Solar Absorptance
  0.92;                                   ! Visible Absorptance

OS:ComponentCost:LineItem,
  {9ce12f88-de4b-4130-9587-78f5a78ce462}, ! Handle
  Title 24-2005 Nonres 2 Ext Wall Wood-Framed and Other, ! Name
  ,                                       ! Type
  Construction,                           ! Line Item Type
  Title 24-2005 Nonres 2 Ext Wall Wood-Framed and Other, ! Item Name
  ,                                       ! Object End Use Key
  ,                                       ! Quantity {dimensionless}
  72.843,                                 ! Material Cost {$}
  CostPerArea;                            ! Material Cost Units

OS:ComponentData,
  {6572800c-0804-47d0-b5c4-9a7d06761f64}, ! Handle
  Component Data 1,                       ! Name
  {d16a231e-885c-47fe-8ac5-b4d4a7b16662}, ! UUID
  {ebb1b8cd-0d66-4c1e-99eb-0464ff40b66a}, ! Version UUID
  1363981973,                             ! Creation Timestamp
  1363981973,                             ! Version Timestamp
  {308414b0-b86a-4079-81d9-245ee9fd62ef}, ! Name of Object 1
  {86d02c93-cb7c-4b22-951e-4352e860eeba}, ! Name of Object 2
  {df547eb1-85aa-4714-abbc-af0b9a835759}, ! Name of Object 3
  {25cb928b-96bf-4432-b94b-45d37ac846f1}, ! Name of Object 4
  {9ce12f88-de4b-4130-9587-78f5a78ce462}; ! Name of Object 5

