
OS:Version,
  {4f28b858-d8ba-4384-a349-59793b6ae79a}, ! Handle
  0.9.3;                                  ! Version Identifier

OS:ComponentCost:LineItem,
  {fccd98dc-5cce-4706-a61d-28b7934ed3fe}, ! Handle
  Title 24-2005 Nonres 2 Ext Wall Wood-Framed and Other, ! Name
  ,                                       ! Type
  Construction,                           ! Line Item Type
  Title 24-2005 Nonres 2 Ext Wall Wood-Framed and Other, ! Item Name
  ,                                       ! Object End Use Key
  ,                                       ! Quantity {dimensionless}
  72.843,                                 ! Material Cost {$}
  CostPerArea;                            ! Material Cost Units

OS:Construction,
  {eda01bcb-8a90-4200-8c39-184b9f6ec913}, ! Handle
  Title 24-2005 Nonres 2 Ext Wall Wood-Framed and Other, ! Name
  ,                                       ! Surface Rendering Name
  {51db306a-dd51-4bef-b5ef-b3dafaa6af8c}, ! Layer 1
  {095d3cc4-c240-4159-bbc8-d2172c189430}, ! Layer 2
  {a64c9fd5-7e32-4c6e-9e5d-15884e26f6ba}; ! Layer 3

OS:Material,
  {51db306a-dd51-4bef-b5ef-b3dafaa6af8c}, ! Handle
  Wood Siding,                            ! Name
  MediumSmooth,                           ! Roughness
  0.01,                                   ! Thickness {m}
  0.11,                                   ! Conductivity {W/m-K}
  544.62,                                 ! Density {kg/m3}
  1210,                                   ! Specific Heat {J/kg-K}
  0.9,                                    ! Thermal Absorptance
  0.78,                                   ! Solar Absorptance
  0.78;                                   ! Visible Absorptance

OS:Material,
  {095d3cc4-c240-4159-bbc8-d2172c189430}, ! Handle
  Wall Insulation [156],                  ! Name
  MediumRough,                            ! Roughness
  0.0633071,                              ! Thickness {m}
  0.045,                                  ! Conductivity {W/m-K}
  265,                                    ! Density {kg/m3}
  836.8,                                  ! Specific Heat {J/kg-K}
  0.9,                                    ! Thermal Absorptance
  0.7,                                    ! Solar Absorptance
  0.7;                                    ! Visible Absorptance

OS:Material,
  {a64c9fd5-7e32-4c6e-9e5d-15884e26f6ba}, ! Handle
  1/2IN Gypsum,                           ! Name
  Smooth,                                 ! Roughness
  0.01271,                                ! Thickness {m}
  0.16,                                   ! Conductivity {W/m-K}
  784.9,                                  ! Density {kg/m3}
  830,                                    ! Specific Heat {J/kg-K}
  0.9,                                    ! Thermal Absorptance
  0.92,                                   ! Solar Absorptance
  0.92;                                   ! Visible Absorptance

