
OS:Version,
  {ab8bbf57-5de8-4388-8e02-014ff25004a7}, ! Handle
  0.9.3;                                  ! Version Identifier

OS:ComponentCost:LineItem,
  {a9eb9dcc-0e3b-42c1-841a-043bd20d1432}, ! Handle
  90.1-2001 Res B9 Roof IEAD,             ! Name
  ,                                       ! Type
  Construction,                           ! Line Item Type
  90.1-2001 Res B9 Roof IEAD,             ! Item Name
  ,                                       ! Object End Use Key
  ,                                       ! Quantity {dimensionless}
  49.208,                                 ! Material Cost {$}
  CostPerArea;                            ! Material Cost Units

OS:Material,
  {4df2d757-6389-42f0-977e-759c2a21ce9d}, ! Handle
  Roof Membrane,                          ! Name
  VeryRough,                              ! Roughness
  0.0095,                                 ! Thickness {m}
  0.16,                                   ! Conductivity {W/m-K}
  1121.29,                                ! Density {kg/m3}
  1460,                                   ! Specific Heat {J/kg-K}
  0.9,                                    ! Thermal Absorptance
  0.7,                                    ! Solar Absorptance
  0.7;                                    ! Visible Absorptance

OS:Material,
  {22626f93-2c75-49d2-bfb8-40400161ff5c}, ! Handle
  Metal Decking,                          ! Name
  MediumSmooth,                           ! Roughness
  0.001524,                               ! Thickness {m}
  45.006,                                 ! Conductivity {W/m-K}
  7680,                                   ! Density {kg/m3}
  418.4,                                  ! Specific Heat {J/kg-K}
  0.9,                                    ! Thermal Absorptance
  0.7,                                    ! Solar Absorptance
  0.3;                                    ! Visible Absorptance

OS:Construction,
  {d278660a-9914-4087-80b6-323fa07ad9a8}, ! Handle
  90.1-2001 Res B9 Roof IEAD,             ! Name
  ,                                       ! Surface Rendering Name
  {4df2d757-6389-42f0-977e-759c2a21ce9d}, ! Layer 1
  {8f006562-28f9-4c7b-807a-cc4a4b6a7d21}, ! Layer 2
  {22626f93-2c75-49d2-bfb8-40400161ff5c}; ! Layer 3

OS:Material,
  {8f006562-28f9-4c7b-807a-cc4a4b6a7d21}, ! Handle
  Roof Insulation,                        ! Name
  MediumRough,                            ! Roughness
  0.124958,                               ! Thickness {m}
  0.049,                                  ! Conductivity {W/m-K}
  265,                                    ! Density {kg/m3}
  836.8,                                  ! Specific Heat {J/kg-K}
  0.9,                                    ! Thermal Absorptance
  0.7,                                    ! Solar Absorptance
  0.7;                                    ! Visible Absorptance

