
OS:Version,
  {1846d71c-b64f-4033-8891-6ddf934ac8f3}, ! Handle
  0.9.3;                                  ! Version Identifier

OS:Construction,
  {72235dd5-8087-438b-b8b2-22004ea850e8}, ! Handle
  189.1-2009 Res 8A Ext Slab Unheated - 4in Slab without Carpet, ! Name
  ,                                       ! Surface Rendering Name
  {546bd9db-5799-47a9-8fbb-b13edc3161a8}; ! Layer 1

OS:Material,
  {546bd9db-5799-47a9-8fbb-b13edc3161a8}, ! Handle
  MAT-CC05 4 HW CONCRETE,                 ! Name
  Rough,                                  ! Roughness
  0.1016,                                 ! Thickness {m}
  1.311,                                  ! Conductivity {W/m-K}
  2240,                                   ! Density {kg/m3}
  836.8,                                  ! Specific Heat {J/kg-K}
  0.9,                                    ! Thermal Absorptance
  0.7,                                    ! Solar Absorptance
  0.7;                                    ! Visible Absorptance

OS:ComponentCost:LineItem,
  {b7cf9113-0d49-4361-a648-53295375c503}, ! Handle
  189.1-2009 Res 8A Ext Slab Unheated - 4in Slab without Carpet, ! Name
  ,                                       ! Type
  Construction,                           ! Line Item Type
  189.1-2009 Res 8A Ext Slab Unheated - 4in Slab without Carpet, ! Item Name
  ,                                       ! Object End Use Key
  ,                                       ! Quantity {dimensionless}
  45.52,                                  ! Material Cost {$}
  CostPerArea;                            ! Material Cost Units

OS:ComponentData,
  {c1fe188f-cd79-4127-a334-9fdf2518875c}, ! Handle
  Component Data 1,                       ! Name
  {c26085c1-69f1-471c-93e9-c42205575deb}, ! UUID
  {08ec9a0a-3202-49dd-bce4-a923e1d792c4}, ! Version UUID
  1363980989,                             ! Creation Timestamp
  1363980989,                             ! Version Timestamp
  {72235dd5-8087-438b-b8b2-22004ea850e8}, ! Name of Object 1
  {546bd9db-5799-47a9-8fbb-b13edc3161a8}, ! Name of Object 2
  {b7cf9113-0d49-4361-a648-53295375c503}; ! Name of Object 3

