
OS:Version,
  {85f11798-8944-4431-abc9-d2ed611e2f42}, ! Handle
  0.9.3;                                  ! Version Identifier

OS:Construction,
  {7a61378c-7b24-4d23-8c97-8391d9f85de0}, ! Handle
  189.1-2009 Res 8A Ext Slab Unheated - 4in Slab without Carpet, ! Name
  ,                                       ! Surface Rendering Name
  {ca71ca2b-bb03-4f3a-80e6-598b1904e27a}; ! Layer 1

OS:Material,
  {ca71ca2b-bb03-4f3a-80e6-598b1904e27a}, ! Handle
  MAT-CC05 4 HW CONCRETE,                 ! Name
  Rough,                                  ! Roughness
  0.1016,                                 ! Thickness {m}
  1.311,                                  ! Conductivity {W/m-K}
  2240,                                   ! Density {kg/m3}
  836.8,                                  ! Specific Heat {J/kg-K}
  0.9,                                    ! Thermal Absorptance
  0.7,                                    ! Solar Absorptance
  0.7;                                    ! Visible Absorptance

OS:ComponentCost:LineItem,
  {f7988ddc-937a-4e97-9a5f-70e36d1038c0}, ! Handle
  189.1-2009 Res 8A Ext Slab Unheated - 4in Slab without Carpet, ! Name
  ,                                       ! Type
  Construction,                           ! Line Item Type
  189.1-2009 Res 8A Ext Slab Unheated - 4in Slab without Carpet, ! Item Name
  ,                                       ! Object End Use Key
  ,                                       ! Quantity {dimensionless}
  45.52,                                  ! Material Cost {$}
  CostPerArea;                            ! Material Cost Units

