
OS:Version,
  {239f68e0-1bcc-4e13-9302-05689e6b0420}, ! Handle
  0.9.3;                                  ! Version Identifier

OS:Material,
  {57df6dcd-2a9a-4d2e-ad6a-eb38cb2dae2a}, ! Handle
  1/2IN Gypsum Top,                       ! Name
  Smooth,                                 ! Roughness
  0.01271,                                ! Thickness {m}
  0.16,                                   ! Conductivity {W/m-K}
  784.9,                                  ! Density {kg/m3}
  830,                                    ! Specific Heat {J/kg-K}
  0.9,                                    ! Thermal Absorptance
  0.92,                                   ! Solar Absorptance
  0.92;                                   ! Visible Absorptance

OS:ComponentCost:LineItem,
  {cb090cc6-0f39-4bbd-973c-36808dd47aea}, ! Handle
  AEDG SHC Nonres 1A Attic Floor,         ! Name
  ,                                       ! Type
  Construction,                           ! Line Item Type
  AEDG SHC Nonres 1A Attic Floor,         ! Item Name
  ,                                       ! Object End Use Key
  ,                                       ! Quantity {dimensionless}
  0,                                      ! Material Cost {$}
  CostPerArea;                            ! Material Cost Units

OS:Material,
  {37ccdbd6-8e3f-4e8b-9a27-d7ed995aaebc}, ! Handle
  1/2IN Gypsum Bottom,                    ! Name
  Smooth,                                 ! Roughness
  0.01271,                                ! Thickness {m}
  0.16,                                   ! Conductivity {W/m-K}
  784.9,                                  ! Density {kg/m3}
  830,                                    ! Specific Heat {J/kg-K}
  0.9,                                    ! Thermal Absorptance
  0.92,                                   ! Solar Absorptance
  0.92;                                   ! Visible Absorptance

OS:Construction,
  {1d2b11df-7b62-4eb5-9bc7-9dc501d5374c}, ! Handle
  AEDG SHC Nonres 1A Attic Floor,         ! Name
  ,                                       ! Surface Rendering Name
  {57df6dcd-2a9a-4d2e-ad6a-eb38cb2dae2a}, ! Layer 1
  {c68c8e1a-a36b-402f-a117-0647a21a32bf}, ! Layer 2
  {37ccdbd6-8e3f-4e8b-9a27-d7ed995aaebc}; ! Layer 3

OS:Material,
  {c68c8e1a-a36b-402f-a117-0647a21a32bf}, ! Handle
  AtticFloor Insulation [6],              ! Name
  MediumRough,                            ! Roughness
  0.150337,                               ! Thickness {m}
  0.049,                                  ! Conductivity {W/m-K}
  265,                                    ! Density {kg/m3}
  836.8,                                  ! Specific Heat {J/kg-K}
  0.9,                                    ! Thermal Absorptance
  0.7,                                    ! Solar Absorptance
  0.7;                                    ! Visible Absorptance

