
OS:Version,
  {37d7bd7a-0549-4b8b-b97c-42e712988862}, ! Handle
  0.9.3;                                  ! Version Identifier

OS:Material,
  {2c7458d7-d2bf-4d63-9d08-9c5dff996802}, ! Handle
  MAT-CC05 4 HW CONCRETE,                 ! Name
  Rough,                                  ! Roughness
  0.1016,                                 ! Thickness {m}
  1.311,                                  ! Conductivity {W/m-K}
  2240,                                   ! Density {kg/m3}
  836.8,                                  ! Specific Heat {J/kg-K}
  0.9,                                    ! Thermal Absorptance
  0.7,                                    ! Solar Absorptance
  0.7;                                    ! Visible Absorptance

OS:ComponentCost:LineItem,
  {a7f4139d-adb4-442d-9abc-46982965167f}, ! Handle
  90.1-2001 Res B6 Ext Slab Unheated - 4in Slab without Carpet, ! Name
  ,                                       ! Type
  Construction,                           ! Line Item Type
  90.1-2001 Res B6 Ext Slab Unheated - 4in Slab without Carpet, ! Item Name
  ,                                       ! Object End Use Key
  ,                                       ! Quantity {dimensionless}
  45.52,                                  ! Material Cost {$}
  CostPerArea;                            ! Material Cost Units

OS:Construction,
  {0de07a84-1f92-4c7c-a4c0-c0ce117b732f}, ! Handle
  90.1-2001 Res B6 Ext Slab Unheated - 4in Slab without Carpet, ! Name
  ,                                       ! Surface Rendering Name
  {2c7458d7-d2bf-4d63-9d08-9c5dff996802}; ! Layer 1

