
OS:Version,
  {a43c8d1b-ef47-4cc3-abf7-7e686a6b1a8e}, ! Handle
  0.9.3;                                  ! Version Identifier

OS:Material,
  {03875002-7341-4f03-ac21-8541420f08a8}, ! Handle
  1/2IN Gypsum,                           ! Name
  Smooth,                                 ! Roughness
  0.01271,                                ! Thickness {m}
  0.16,                                   ! Conductivity {W/m-K}
  784.9,                                  ! Density {kg/m3}
  830,                                    ! Specific Heat {J/kg-K}
  0.9,                                    ! Thermal Absorptance
  0.92,                                   ! Solar Absorptance
  0.92;                                   ! Visible Absorptance

OS:Material,
  {49ac721a-f3ef-494f-a172-dab5185daa3b}, ! Handle
  Wall Insulation [2],                    ! Name
  MediumRough,                            ! Roughness
  0.0746874,                              ! Thickness {m}
  0.045,                                  ! Conductivity {W/m-K}
  265,                                    ! Density {kg/m3}
  836.8,                                  ! Specific Heat {J/kg-K}
  0.9,                                    ! Thermal Absorptance
  0.7,                                    ! Solar Absorptance
  0.7;                                    ! Visible Absorptance

OS:ComponentCost:LineItem,
  {417f51d1-348a-4b8c-90b9-e4c676e4a818}, ! Handle
  90.1-2001 Nonres B3 Ext Wall Wood-Framed and Other, ! Name
  ,                                       ! Type
  Construction,                           ! Line Item Type
  90.1-2001 Nonres B3 Ext Wall Wood-Framed and Other, ! Item Name
  ,                                       ! Object End Use Key
  ,                                       ! Quantity {dimensionless}
  73.056,                                 ! Material Cost {$}
  CostPerArea;                            ! Material Cost Units

OS:Construction,
  {077e878c-cc95-4f89-89dc-96c773b43ee6}, ! Handle
  90.1-2001 Nonres B3 Ext Wall Wood-Framed and Other, ! Name
  ,                                       ! Surface Rendering Name
  {e393b835-6c4e-467d-90b5-1fb52c34104b}, ! Layer 1
  {49ac721a-f3ef-494f-a172-dab5185daa3b}, ! Layer 2
  {03875002-7341-4f03-ac21-8541420f08a8}; ! Layer 3

OS:Material,
  {e393b835-6c4e-467d-90b5-1fb52c34104b}, ! Handle
  Wood Siding,                            ! Name
  MediumSmooth,                           ! Roughness
  0.01,                                   ! Thickness {m}
  0.11,                                   ! Conductivity {W/m-K}
  544.62,                                 ! Density {kg/m3}
  1210,                                   ! Specific Heat {J/kg-K}
  0.9,                                    ! Thermal Absorptance
  0.78,                                   ! Solar Absorptance
  0.78;                                   ! Visible Absorptance

