
OS:Version,
  {2ccdae06-0963-4024-8b55-df7a158dc991}, ! Handle
  0.9.3;                                  ! Version Identifier

OS:Construction,
  {f55503b4-b8ec-43cb-bf54-74bd8e92ef41}, ! Handle
  90.1-2001 Nonres B3 Ext Wall Wood-Framed and Other, ! Name
  ,                                       ! Surface Rendering Name
  {11bdee8b-090c-4efd-9067-7e262d0446bc}, ! Layer 1
  {d99cf425-63a6-4552-8a72-5d3a1ff6f50f}, ! Layer 2
  {058e548f-19f9-4c0d-a827-25fdd5810e99}; ! Layer 3

OS:Material,
  {11bdee8b-090c-4efd-9067-7e262d0446bc}, ! Handle
  Wood Siding,                            ! Name
  MediumSmooth,                           ! Roughness
  0.01,                                   ! Thickness {m}
  0.11,                                   ! Conductivity {W/m-K}
  544.62,                                 ! Density {kg/m3}
  1210,                                   ! Specific Heat {J/kg-K}
  0.9,                                    ! Thermal Absorptance
  0.78,                                   ! Solar Absorptance
  0.78;                                   ! Visible Absorptance

OS:Material,
  {d99cf425-63a6-4552-8a72-5d3a1ff6f50f}, ! Handle
  Wall Insulation [2],                    ! Name
  MediumRough,                            ! Roughness
  0.0746874,                              ! Thickness {m}
  0.045,                                  ! Conductivity {W/m-K}
  265,                                    ! Density {kg/m3}
  836.8,                                  ! Specific Heat {J/kg-K}
  0.9,                                    ! Thermal Absorptance
  0.7,                                    ! Solar Absorptance
  0.7;                                    ! Visible Absorptance

OS:Material,
  {058e548f-19f9-4c0d-a827-25fdd5810e99}, ! Handle
  1/2IN Gypsum,                           ! Name
  Smooth,                                 ! Roughness
  0.01271,                                ! Thickness {m}
  0.16,                                   ! Conductivity {W/m-K}
  784.9,                                  ! Density {kg/m3}
  830,                                    ! Specific Heat {J/kg-K}
  0.9,                                    ! Thermal Absorptance
  0.92,                                   ! Solar Absorptance
  0.92;                                   ! Visible Absorptance

OS:ComponentCost:LineItem,
  {de00b687-9dfb-4061-bcb2-e6c0e99e11a4}, ! Handle
  90.1-2001 Nonres B3 Ext Wall Wood-Framed and Other, ! Name
  ,                                       ! Type
  Construction,                           ! Line Item Type
  90.1-2001 Nonres B3 Ext Wall Wood-Framed and Other, ! Item Name
  ,                                       ! Object End Use Key
  ,                                       ! Quantity {dimensionless}
  73.056,                                 ! Material Cost {$}
  CostPerArea;                            ! Material Cost Units

OS:ComponentData,
  {4db2ea9b-5b49-4db0-80ab-a8eb72df10d0}, ! Handle
  Component Data 1,                       ! Name
  {32b494a1-4526-47c5-b29f-544c746dfe6e}, ! UUID
  {abee1a30-545b-4c44-80ae-1ef558d47fd8}, ! Version UUID
  1363981301,                             ! Creation Timestamp
  1363981301,                             ! Version Timestamp
  {f55503b4-b8ec-43cb-bf54-74bd8e92ef41}, ! Name of Object 1
  {11bdee8b-090c-4efd-9067-7e262d0446bc}, ! Name of Object 2
  {d99cf425-63a6-4552-8a72-5d3a1ff6f50f}, ! Name of Object 3
  {058e548f-19f9-4c0d-a827-25fdd5810e99}, ! Name of Object 4
  {de00b687-9dfb-4061-bcb2-e6c0e99e11a4}; ! Name of Object 5

