
OS:Version,
  {6ba744e3-9864-4e42-8861-736ca4c590ee}, ! Handle
  0.9.3;                                  ! Version Identifier

OS:Construction,
  {06faa6e8-9a0b-46a8-8d5a-65582324c817}, ! Handle
  90.1-1999 Res B10 Ext Slab Unheated - 8in Slab without Carpet, ! Name
  ,                                       ! Surface Rendering Name
  {682f7054-f59e-4834-b3e8-81327927a956}; ! Layer 1

OS:Material,
  {682f7054-f59e-4834-b3e8-81327927a956}, ! Handle
  MAT-CC05 8 HW CONCRETE,                 ! Name
  Rough,                                  ! Roughness
  0.20321,                                ! Thickness {m}
  1.311,                                  ! Conductivity {W/m-K}
  2240,                                   ! Density {kg/m3}
  836.8,                                  ! Specific Heat {J/kg-K}
  0.9,                                    ! Thermal Absorptance
  0.7,                                    ! Solar Absorptance
  0.7;                                    ! Visible Absorptance

OS:ComponentCost:LineItem,
  {97879385-1faf-4e6a-83ee-05750a8b9eb9}, ! Handle
  90.1-1999 Res B10 Ext Slab Unheated - 8in Slab without Carpet, ! Name
  ,                                       ! Type
  Construction,                           ! Line Item Type
  90.1-1999 Res B10 Ext Slab Unheated - 8in Slab without Carpet, ! Item Name
  ,                                       ! Object End Use Key
  ,                                       ! Quantity {dimensionless}
  45.52,                                  ! Material Cost {$}
  CostPerArea;                            ! Material Cost Units

