
OS:Version,
  {6e47ef4d-a055-4935-b18b-7d54d8a140cc}, ! Handle
  0.9.3;                                  ! Version Identifier

OS:Material:NoMass,
  {18441e50-6215-4b95-babd-f6ad08eabbd2}, ! Handle
  CP02 CARPET PAD,                        ! Name
  VeryRough,                              ! Roughness
  0.21648,                                ! Thermal Resistance {m2-K/W}
  0.9,                                    ! Thermal Absorptance
  0.7,                                    ! Solar Absorptance
  0.8;                                    ! Visible Absorptance

OS:Material,
  {81c34306-05e3-4c72-b42c-e87dd87fa571}, ! Handle
  MAT-CC05 8 HW CONCRETE,                 ! Name
  Rough,                                  ! Roughness
  0.20321,                                ! Thickness {m}
  1.311,                                  ! Conductivity {W/m-K}
  2240,                                   ! Density {kg/m3}
  836.8,                                  ! Specific Heat {J/kg-K}
  0.9,                                    ! Thermal Absorptance
  0.7,                                    ! Solar Absorptance
  0.7;                                    ! Visible Absorptance

OS:Construction,
  {127cc399-1014-4f80-b3e2-5ed8c144ece9}, ! Handle
  90.1-2004 Res 5B Exposed Floor Mass,    ! Name
  ,                                       ! Surface Rendering Name
  {c11e0f13-55d7-484d-9570-b7cf283be105}, ! Layer 1
  {81c34306-05e3-4c72-b42c-e87dd87fa571}, ! Layer 2
  {18441e50-6215-4b95-babd-f6ad08eabbd2}; ! Layer 3

OS:Material,
  {c11e0f13-55d7-484d-9570-b7cf283be105}, ! Handle
  Floor Insulation [4],                   ! Name
  MediumRough,                            ! Roughness
  0.0795397,                              ! Thickness {m}
  0.045,                                  ! Conductivity {W/m-K}
  265,                                    ! Density {kg/m3}
  836.8,                                  ! Specific Heat {J/kg-K}
  0.9,                                    ! Thermal Absorptance
  0.7,                                    ! Solar Absorptance
  0.7;                                    ! Visible Absorptance

OS:ComponentCost:LineItem,
  {fcd7b453-3561-4a0f-972e-c8af48d235b0}, ! Handle
  90.1-2004 Res 5B Exposed Floor Mass,    ! Name
  ,                                       ! Type
  Construction,                           ! Line Item Type
  90.1-2004 Res 5B Exposed Floor Mass,    ! Item Name
  ,                                       ! Object End Use Key
  ,                                       ! Quantity {dimensionless}
  51.754,                                 ! Material Cost {$}
  CostPerArea;                            ! Material Cost Units

