
OS:Version,
  {8ef0d4a1-753a-4d7e-a558-b7a10f2adb78}, ! Handle
  0.9.3;                                  ! Version Identifier

OS:Construction,
  {146d7cdd-6d8c-4265-b3f4-6f5e68316a2d}, ! Handle
  90.1-2004 Res 5B Exposed Floor Mass,    ! Name
  ,                                       ! Surface Rendering Name
  {5f75eeb6-fbe5-4ab8-b2ed-4e70b7916e29}, ! Layer 1
  {9afdedfa-e04b-4aa0-b857-aad6b5f1b7a6}, ! Layer 2
  {65171f91-92fb-4ffb-b87f-0b58fd0bc201}; ! Layer 3

OS:Material,
  {5f75eeb6-fbe5-4ab8-b2ed-4e70b7916e29}, ! Handle
  Floor Insulation [4],                   ! Name
  MediumRough,                            ! Roughness
  0.0795397,                              ! Thickness {m}
  0.045,                                  ! Conductivity {W/m-K}
  265,                                    ! Density {kg/m3}
  836.8,                                  ! Specific Heat {J/kg-K}
  0.9,                                    ! Thermal Absorptance
  0.7,                                    ! Solar Absorptance
  0.7;                                    ! Visible Absorptance

OS:Material,
  {9afdedfa-e04b-4aa0-b857-aad6b5f1b7a6}, ! Handle
  MAT-CC05 8 HW CONCRETE,                 ! Name
  Rough,                                  ! Roughness
  0.20321,                                ! Thickness {m}
  1.311,                                  ! Conductivity {W/m-K}
  2240,                                   ! Density {kg/m3}
  836.8,                                  ! Specific Heat {J/kg-K}
  0.9,                                    ! Thermal Absorptance
  0.7,                                    ! Solar Absorptance
  0.7;                                    ! Visible Absorptance

OS:Material:NoMass,
  {65171f91-92fb-4ffb-b87f-0b58fd0bc201}, ! Handle
  CP02 CARPET PAD,                        ! Name
  VeryRough,                              ! Roughness
  0.21648,                                ! Thermal Resistance {m2-K/W}
  0.9,                                    ! Thermal Absorptance
  0.7,                                    ! Solar Absorptance
  0.8;                                    ! Visible Absorptance

OS:ComponentCost:LineItem,
  {875768cf-02b6-4c87-92d6-c1e595b27dcf}, ! Handle
  90.1-2004 Res 5B Exposed Floor Mass,    ! Name
  ,                                       ! Type
  Construction,                           ! Line Item Type
  90.1-2004 Res 5B Exposed Floor Mass,    ! Item Name
  ,                                       ! Object End Use Key
  ,                                       ! Quantity {dimensionless}
  51.754,                                 ! Material Cost {$}
  CostPerArea;                            ! Material Cost Units

OS:ComponentData,
  {f52ca840-3fe3-4097-85d7-c3f89b8cda0e}, ! Handle
  Component Data 1,                       ! Name
  {51892ac3-1b18-46e9-b5b9-3d67e69ffd52}, ! UUID
  {9a6c1137-c5bb-4f8d-a141-799277f97774}, ! Version UUID
  1363981747,                             ! Creation Timestamp
  1363981747,                             ! Version Timestamp
  {146d7cdd-6d8c-4265-b3f4-6f5e68316a2d}, ! Name of Object 1
  {5f75eeb6-fbe5-4ab8-b2ed-4e70b7916e29}, ! Name of Object 2
  {9afdedfa-e04b-4aa0-b857-aad6b5f1b7a6}, ! Name of Object 3
  {65171f91-92fb-4ffb-b87f-0b58fd0bc201}, ! Name of Object 4
  {875768cf-02b6-4c87-92d6-c1e595b27dcf}; ! Name of Object 5

