
OS:Version,
  {cd39f591-2981-408e-8d78-75b014929222}, ! Handle
  0.9.3;                                  ! Version Identifier

OS:Construction,
  {d1607689-2b07-4f7a-8aa2-38faf4f51cc1}, ! Handle
  90.1-2007 Nonres 3A Attic Floor,        ! Name
  ,                                       ! Surface Rendering Name
  {f53958a2-fc21-4e12-b64e-5bc40d0ecbeb}, ! Layer 1
  {818b0ad1-270f-40b6-a486-39d16fc783f8}, ! Layer 2
  {5906d4d9-e5b0-4855-a3ab-d5a86a983c7f}; ! Layer 3

OS:Material,
  {f53958a2-fc21-4e12-b64e-5bc40d0ecbeb}, ! Handle
  1/2IN Gypsum Top,                       ! Name
  Smooth,                                 ! Roughness
  0.01271,                                ! Thickness {m}
  0.16,                                   ! Conductivity {W/m-K}
  784.9,                                  ! Density {kg/m3}
  830,                                    ! Specific Heat {J/kg-K}
  0.9,                                    ! Thermal Absorptance
  0.92,                                   ! Solar Absorptance
  0.92;                                   ! Visible Absorptance

OS:Material,
  {818b0ad1-270f-40b6-a486-39d16fc783f8}, ! Handle
  AtticFloor Insulation [1],              ! Name
  MediumRough,                            ! Roughness
  0.303719,                               ! Thickness {m}
  0.049,                                  ! Conductivity {W/m-K}
  265,                                    ! Density {kg/m3}
  836.8,                                  ! Specific Heat {J/kg-K}
  0.9,                                    ! Thermal Absorptance
  0.7,                                    ! Solar Absorptance
  0.7;                                    ! Visible Absorptance

OS:Material,
  {5906d4d9-e5b0-4855-a3ab-d5a86a983c7f}, ! Handle
  1/2IN Gypsum Bottom,                    ! Name
  Smooth,                                 ! Roughness
  0.01271,                                ! Thickness {m}
  0.16,                                   ! Conductivity {W/m-K}
  784.9,                                  ! Density {kg/m3}
  830,                                    ! Specific Heat {J/kg-K}
  0.9,                                    ! Thermal Absorptance
  0.92,                                   ! Solar Absorptance
  0.92;                                   ! Visible Absorptance

OS:ComponentCost:LineItem,
  {576925c4-31bc-4a82-aacf-20e579d56006}, ! Handle
  90.1-2007 Nonres 3A Attic Floor,        ! Name
  ,                                       ! Type
  Construction,                           ! Line Item Type
  90.1-2007 Nonres 3A Attic Floor,        ! Item Name
  ,                                       ! Object End Use Key
  ,                                       ! Quantity {dimensionless}
  35.009,                                 ! Material Cost {$}
  CostPerArea;                            ! Material Cost Units

OS:ComponentData,
  {5cafb2ca-ca98-4391-821a-3c5de689d83b}, ! Handle
  Component Data 1,                       ! Name
  {22b5f29e-6c29-4bbc-9efd-d0cf1be61fcf}, ! UUID
  {403b774f-94bd-41ec-8e27-56a7723886aa}, ! Version UUID
  1363981794,                             ! Creation Timestamp
  1363981794,                             ! Version Timestamp
  {d1607689-2b07-4f7a-8aa2-38faf4f51cc1}, ! Name of Object 1
  {f53958a2-fc21-4e12-b64e-5bc40d0ecbeb}, ! Name of Object 2
  {818b0ad1-270f-40b6-a486-39d16fc783f8}, ! Name of Object 3
  {5906d4d9-e5b0-4855-a3ab-d5a86a983c7f}, ! Name of Object 4
  {576925c4-31bc-4a82-aacf-20e579d56006}; ! Name of Object 5

