
OS:Version,
  {48ce1b88-3094-478d-b990-54714e372c18}, ! Handle
  0.9.3;                                  ! Version Identifier

OS:Material,
  {f4ff22ad-6040-4da7-b652-9b7a8e71999d}, ! Handle
  AtticFloor Insulation [1],              ! Name
  MediumRough,                            ! Roughness
  0.303719,                               ! Thickness {m}
  0.049,                                  ! Conductivity {W/m-K}
  265,                                    ! Density {kg/m3}
  836.8,                                  ! Specific Heat {J/kg-K}
  0.9,                                    ! Thermal Absorptance
  0.7,                                    ! Solar Absorptance
  0.7;                                    ! Visible Absorptance

OS:ComponentCost:LineItem,
  {e0c54721-e7bf-4f11-a5ef-1ee31d1a8e7c}, ! Handle
  90.1-2007 Nonres 3A Attic Floor,        ! Name
  ,                                       ! Type
  Construction,                           ! Line Item Type
  90.1-2007 Nonres 3A Attic Floor,        ! Item Name
  ,                                       ! Object End Use Key
  ,                                       ! Quantity {dimensionless}
  35.009,                                 ! Material Cost {$}
  CostPerArea;                            ! Material Cost Units

OS:Material,
  {636ff79e-ffe5-4da4-b243-547573e8909e}, ! Handle
  1/2IN Gypsum Bottom,                    ! Name
  Smooth,                                 ! Roughness
  0.01271,                                ! Thickness {m}
  0.16,                                   ! Conductivity {W/m-K}
  784.9,                                  ! Density {kg/m3}
  830,                                    ! Specific Heat {J/kg-K}
  0.9,                                    ! Thermal Absorptance
  0.92,                                   ! Solar Absorptance
  0.92;                                   ! Visible Absorptance

OS:Material,
  {1f7c9e38-c0ca-4047-8149-ca581ac000e6}, ! Handle
  1/2IN Gypsum Top,                       ! Name
  Smooth,                                 ! Roughness
  0.01271,                                ! Thickness {m}
  0.16,                                   ! Conductivity {W/m-K}
  784.9,                                  ! Density {kg/m3}
  830,                                    ! Specific Heat {J/kg-K}
  0.9,                                    ! Thermal Absorptance
  0.92,                                   ! Solar Absorptance
  0.92;                                   ! Visible Absorptance

OS:Construction,
  {152a2acf-aec6-45c1-ae13-a02d47f8707f}, ! Handle
  90.1-2007 Nonres 3A Attic Floor,        ! Name
  ,                                       ! Surface Rendering Name
  {1f7c9e38-c0ca-4047-8149-ca581ac000e6}, ! Layer 1
  {f4ff22ad-6040-4da7-b652-9b7a8e71999d}, ! Layer 2
  {636ff79e-ffe5-4da4-b243-547573e8909e}; ! Layer 3

