
OS:Version,
  {3d08bae7-0d46-47ab-903e-7dabcd8a2ef0}, ! Handle
  0.9.3;                                  ! Version Identifier

OS:WindowMaterial:Glazing,
  {8e2d33fa-5956-49df-9cd0-0a9dd33d46f5}, ! Handle
  Theoretical Glass [548],                ! Name
  SpectralAverage,                        ! Optical Data Type
  ,                                       ! Window Glass Spectral Data Set Name
  0.003,                                  ! Thickness {m}
  0.186579,                               ! Solar Transmittance at Normal Incidence
  0.763421,                               ! Front Side Solar Reflectance at Normal Incidence
  0.763421,                               ! Back Side Solar Reflectance at Normal Incidence
  0.301356,                               ! Visible Transmittance at Normal Incidence
  0.648644,                               ! Front Side Visible Reflectance at Normal Incidence
  0.648644,                               ! Back Side Visible Reflectance at Normal Incidence
  0,                                      ! Infrared Transmittance at Normal Incidence
  0.9,                                    ! Front Side Infrared Hemispherical Emissivity
  0.9,                                    ! Back Side Infrared Hemispherical Emissivity
  0.00919137;                             ! Conductivity {W/m-K}

OS:ComponentCost:LineItem,
  {81d01ef7-d908-49bd-a54f-06455fcde378}, ! Handle
  90.1 Windows Window Fixed 2545 Vnl-GrnMpr-Std-ClrSue, ! Name
  ,                                       ! Type
  Construction,                           ! Line Item Type
  90.1 Windows Window Fixed 2545 Vnl-GrnMpr-Std-ClrSue, ! Item Name
  ,                                       ! Object End Use Key
  ,                                       ! Quantity {dimensionless}
  0,                                      ! Material Cost {$}
  CostPerArea;                            ! Material Cost Units

OS:Construction,
  {bf39f11f-9c10-453c-8103-3339b960e517}, ! Handle
  90.1 Windows Window Fixed 2545 Vnl-GrnMpr-Std-ClrSue, ! Name
  ,                                       ! Surface Rendering Name
  {8e2d33fa-5956-49df-9cd0-0a9dd33d46f5}; ! Layer 1

