
OS:Version,
  {504da390-22af-4b82-9f26-f580577c7524}, ! Handle
  0.9.3;                                  ! Version Identifier

OS:Construction,
  {6561a662-b6e3-42c1-8b02-0fe13b9e4191}, ! Handle
  90.1 Windows Window Fixed 2545 Vnl-GrnMpr-Std-ClrSue, ! Name
  ,                                       ! Surface Rendering Name
  {71be947b-7644-4701-b7aa-b1787a872893}; ! Layer 1

OS:WindowMaterial:Glazing,
  {71be947b-7644-4701-b7aa-b1787a872893}, ! Handle
  Theoretical Glass [548],                ! Name
  SpectralAverage,                        ! Optical Data Type
  ,                                       ! Window Glass Spectral Data Set Name
  0.003,                                  ! Thickness {m}
  0.186579,                               ! Solar Transmittance at Normal Incidence
  0.763421,                               ! Front Side Solar Reflectance at Normal Incidence
  0.763421,                               ! Back Side Solar Reflectance at Normal Incidence
  0.301356,                               ! Visible Transmittance at Normal Incidence
  0.648644,                               ! Front Side Visible Reflectance at Normal Incidence
  0.648644,                               ! Back Side Visible Reflectance at Normal Incidence
  0,                                      ! Infrared Transmittance at Normal Incidence
  0.9,                                    ! Front Side Infrared Hemispherical Emissivity
  0.9,                                    ! Back Side Infrared Hemispherical Emissivity
  0.00919137;                             ! Conductivity {W/m-K}

OS:ComponentCost:LineItem,
  {5f244dbc-6dd9-4e3e-a78e-e4929d844882}, ! Handle
  90.1 Windows Window Fixed 2545 Vnl-GrnMpr-Std-ClrSue, ! Name
  ,                                       ! Type
  Construction,                           ! Line Item Type
  90.1 Windows Window Fixed 2545 Vnl-GrnMpr-Std-ClrSue, ! Item Name
  ,                                       ! Object End Use Key
  ,                                       ! Quantity {dimensionless}
  0,                                      ! Material Cost {$}
  CostPerArea;                            ! Material Cost Units

OS:ComponentData,
  {3504774e-0d49-49ff-b87c-50fed9a447f8}, ! Handle
  Component Data 1,                       ! Name
  {5eff0682-a37e-4e91-8ea8-9bf6366524bc}, ! UUID
  {5d0f8de4-1f19-4714-8064-364041cbf08d}, ! Version UUID
  1363981028,                             ! Creation Timestamp
  1363981028,                             ! Version Timestamp
  {6561a662-b6e3-42c1-8b02-0fe13b9e4191}, ! Name of Object 1
  {71be947b-7644-4701-b7aa-b1787a872893}, ! Name of Object 2
  {5f244dbc-6dd9-4e3e-a78e-e4929d844882}; ! Name of Object 3

