
OS:Version,
  {fafcecc8-0042-44f8-be78-bdc0ecd26c41}, ! Handle
  0.9.3;                                  ! Version Identifier

OS:Material,
  {d810d02d-d5cf-4b3b-a9de-498f40d89c8b}, ! Handle
  Wall Insulation [159],                  ! Name
  MediumRough,                            ! Roughness
  0.0812,                                 ! Thickness {m}
  0.045,                                  ! Conductivity {W/m-K}
  265,                                    ! Density {kg/m3}
  836.8,                                  ! Specific Heat {J/kg-K}
  0.9,                                    ! Thermal Absorptance
  0.7,                                    ! Solar Absorptance
  0.7;                                    ! Visible Absorptance

OS:Material,
  {88ab98b2-4921-4ff1-a21c-8b045aefe24f}, ! Handle
  1/2IN Gypsum,                           ! Name
  Smooth,                                 ! Roughness
  0.01271,                                ! Thickness {m}
  0.16,                                   ! Conductivity {W/m-K}
  784.9,                                  ! Density {kg/m3}
  830,                                    ! Specific Heat {J/kg-K}
  0.9,                                    ! Thermal Absorptance
  0.92,                                   ! Solar Absorptance
  0.92;                                   ! Visible Absorptance

OS:ComponentCost:LineItem,
  {b4ab8508-186a-48cf-80e6-16cdd57ed2b7}, ! Handle
  Title 24-2008 Nonres 14 Ext Wall Metal Building, ! Name
  ,                                       ! Type
  Construction,                           ! Line Item Type
  Title 24-2008 Nonres 14 Ext Wall Metal Building, ! Item Name
  ,                                       ! Object End Use Key
  ,                                       ! Quantity {dimensionless}
  184.211,                                ! Material Cost {$}
  CostPerArea;                            ! Material Cost Units

OS:Construction,
  {bcd7d2ce-e34e-450e-b0f4-bd162eb1cf20}, ! Handle
  Title 24-2008 Nonres 14 Ext Wall Metal Building, ! Name
  ,                                       ! Surface Rendering Name
  {a40d66af-7058-4a4b-b820-6ee4040cec34}, ! Layer 1
  {d810d02d-d5cf-4b3b-a9de-498f40d89c8b}, ! Layer 2
  {88ab98b2-4921-4ff1-a21c-8b045aefe24f}; ! Layer 3

OS:Material,
  {a40d66af-7058-4a4b-b820-6ee4040cec34}, ! Handle
  Metal Siding,                           ! Name
  Smooth,                                 ! Roughness
  0.0015,                                 ! Thickness {m}
  44.96,                                  ! Conductivity {W/m-K}
  7688.86,                                ! Density {kg/m3}
  410,                                    ! Specific Heat {J/kg-K}
  0.9,                                    ! Thermal Absorptance
  0.2,                                    ! Solar Absorptance
  0.2;                                    ! Visible Absorptance

