
OS:Version,
  {56f0ff8a-7f55-45af-977b-424f7263d570}, ! Handle
  0.9.3;                                  ! Version Identifier

OS:Material,
  {974a1340-b6a3-4cd6-9161-2ce634be061c}, ! Handle
  Wall Insulation [10],                   ! Name
  MediumRough,                            ! Roughness
  0.0971136,                              ! Thickness {m}
  0.045,                                  ! Conductivity {W/m-K}
  265,                                    ! Density {kg/m3}
  836.8,                                  ! Specific Heat {J/kg-K}
  0.9,                                    ! Thermal Absorptance
  0.7,                                    ! Solar Absorptance
  0.7;                                    ! Visible Absorptance

OS:Construction,
  {61628b36-e182-47ff-bc9c-933af362547b}, ! Handle
  90.1-2001 Nonres B21 Ext Wall Steel-Framed, ! Name
  ,                                       ! Surface Rendering Name
  {47bc7129-fc04-4b6a-b91b-fa4f96641318}, ! Layer 1
  {974a1340-b6a3-4cd6-9161-2ce634be061c}, ! Layer 2
  {be26870f-8bf9-4924-b8b4-cea123623607}; ! Layer 3

OS:Material:NoMass,
  {47bc7129-fc04-4b6a-b91b-fa4f96641318}, ! Handle
  MAT-SHEATH,                             ! Name
  Rough,                                  ! Roughness
  0.36256,                                ! Thermal Resistance {m2-K/W}
  0.9,                                    ! Thermal Absorptance
  0.7,                                    ! Solar Absorptance
  0.7;                                    ! Visible Absorptance

OS:Material,
  {be26870f-8bf9-4924-b8b4-cea123623607}, ! Handle
  1/2IN Gypsum,                           ! Name
  Smooth,                                 ! Roughness
  0.01271,                                ! Thickness {m}
  0.16,                                   ! Conductivity {W/m-K}
  784.9,                                  ! Density {kg/m3}
  830,                                    ! Specific Heat {J/kg-K}
  0.9,                                    ! Thermal Absorptance
  0.92,                                   ! Solar Absorptance
  0.92;                                   ! Visible Absorptance

OS:ComponentCost:LineItem,
  {fb3b916b-9e65-4994-b607-8bd41894d78c}, ! Handle
  90.1-2001 Nonres B21 Ext Wall Steel-Framed, ! Name
  ,                                       ! Type
  Construction,                           ! Line Item Type
  90.1-2001 Nonres B21 Ext Wall Steel-Framed, ! Item Name
  ,                                       ! Object End Use Key
  ,                                       ! Quantity {dimensionless}
  94.657,                                 ! Material Cost {$}
  CostPerArea;                            ! Material Cost Units

