
OS:Version,
  {f1532bdd-5d9e-4386-925d-0c6d7a4b5f7b}, ! Handle
  0.9.3;                                  ! Version Identifier

OS:Construction,
  {d3e37574-558f-47da-94ac-15e80449e56c}, ! Handle
  90.1 Windows Window Fixed 3451 Brk-Clr-Ins-V54-Ins-Clr, ! Name
  ,                                       ! Surface Rendering Name
  {98ddb25a-1d94-4865-8db1-cf05f34f1123}; ! Layer 1

OS:WindowMaterial:Glazing,
  {98ddb25a-1d94-4865-8db1-cf05f34f1123}, ! Handle
  Theoretical Glass [462],                ! Name
  SpectralAverage,                        ! Optical Data Type
  ,                                       ! Window Glass Spectral Data Set Name
  0.003,                                  ! Thickness {m}
  0.296268,                               ! Solar Transmittance at Normal Incidence
  0.653732,                               ! Front Side Solar Reflectance at Normal Incidence
  0.653732,                               ! Back Side Solar Reflectance at Normal Incidence
  0.410537,                               ! Visible Transmittance at Normal Incidence
  0.539463,                               ! Front Side Visible Reflectance at Normal Incidence
  0.539463,                               ! Back Side Visible Reflectance at Normal Incidence
  0,                                      ! Infrared Transmittance at Normal Incidence
  0.9,                                    ! Front Side Infrared Hemispherical Emissivity
  0.9,                                    ! Back Side Infrared Hemispherical Emissivity
  0.00845959;                             ! Conductivity {W/m-K}

OS:ComponentCost:LineItem,
  {c327d16e-3526-434b-9170-0a018ba22f38}, ! Handle
  90.1 Windows Window Fixed 3451 Brk-Clr-Ins-V54-Ins-Clr, ! Name
  ,                                       ! Type
  Construction,                           ! Line Item Type
  90.1 Windows Window Fixed 3451 Brk-Clr-Ins-V54-Ins-Clr, ! Item Name
  ,                                       ! Object End Use Key
  ,                                       ! Quantity {dimensionless}
  0,                                      ! Material Cost {$}
  CostPerArea;                            ! Material Cost Units

OS:ComponentData,
  {8f07890f-484c-4324-ab65-838a57619f06}, ! Handle
  Component Data 1,                       ! Name
  {c7fc9f94-add2-4df7-8ed3-a7e155b5754b}, ! UUID
  {bb5875d3-f08c-435f-8b44-c30cce3b318f}, ! Version UUID
  1363981020,                             ! Creation Timestamp
  1363981020,                             ! Version Timestamp
  {d3e37574-558f-47da-94ac-15e80449e56c}, ! Name of Object 1
  {98ddb25a-1d94-4865-8db1-cf05f34f1123}, ! Name of Object 2
  {c327d16e-3526-434b-9170-0a018ba22f38}; ! Name of Object 3

