
OS:Version,
  {28657504-2ab2-411d-8a86-1eb4d15da014}, ! Handle
  0.9.3;                                  ! Version Identifier

OS:Construction,
  {86cf4bf5-7467-4499-9170-2bb20e9dd7d8}, ! Handle
  AEDG K12 Nonres 5B Int Wall,            ! Name
  ,                                       ! Surface Rendering Name
  {cc29dcec-83d9-41fa-8359-a700246db645}, ! Layer 1
  {cc29dcec-83d9-41fa-8359-a700246db645}; ! Layer 2

OS:Material,
  {cc29dcec-83d9-41fa-8359-a700246db645}, ! Handle
  GP01 1/2 GYPSUM,                        ! Name
  Smooth,                                 ! Roughness
  0.01271,                                ! Thickness {m}
  0.16,                                   ! Conductivity {W/m-K}
  800,                                    ! Density {kg/m3}
  1090,                                   ! Specific Heat {J/kg-K}
  0.9,                                    ! Thermal Absorptance
  0.7,                                    ! Solar Absorptance
  0.5;                                    ! Visible Absorptance

OS:ComponentCost:LineItem,
  {0204d907-07e0-4d7e-b88f-8c14ebc3dd97}, ! Handle
  AEDG K12 Nonres 5B Int Wall,            ! Name
  ,                                       ! Type
  Construction,                           ! Line Item Type
  AEDG K12 Nonres 5B Int Wall,            ! Item Name
  ,                                       ! Object End Use Key
  ,                                       ! Quantity {dimensionless}
  0,                                      ! Material Cost {$}
  CostPerArea;                            ! Material Cost Units

OS:Material,
  {dbba5e48-d39f-46a2-8c46-f0fe0b3fad14}, ! Handle
  GP01 1/2 GYPSUM 1,                      ! Name
  Smooth,                                 ! Roughness
  0.01271,                                ! Thickness {m}
  0.16,                                   ! Conductivity {W/m-K}
  800,                                    ! Density {kg/m3}
  1090,                                   ! Specific Heat {J/kg-K}
  0.9,                                    ! Thermal Absorptance
  0.7,                                    ! Solar Absorptance
  0.5;                                    ! Visible Absorptance

