
OS:Version,
  {32128322-4487-4f29-9bda-a4c17d307ca0}, ! Handle
  0.9.3;                                  ! Version Identifier

OS:Construction,
  {02409737-3e47-4a6d-8951-fa119c307981}, ! Handle
  AEDG K12 Nonres 5B Int Wall,            ! Name
  ,                                       ! Surface Rendering Name
  {444ad32e-51a6-4347-8cce-3ae40b141fc2}, ! Layer 1
  {444ad32e-51a6-4347-8cce-3ae40b141fc2}; ! Layer 2

OS:Material,
  {444ad32e-51a6-4347-8cce-3ae40b141fc2}, ! Handle
  GP01 1/2 GYPSUM,                        ! Name
  Smooth,                                 ! Roughness
  0.01271,                                ! Thickness {m}
  0.16,                                   ! Conductivity {W/m-K}
  800,                                    ! Density {kg/m3}
  1090,                                   ! Specific Heat {J/kg-K}
  0.9,                                    ! Thermal Absorptance
  0.7,                                    ! Solar Absorptance
  0.5;                                    ! Visible Absorptance

OS:ComponentCost:LineItem,
  {9c4717a0-4925-40d5-9e16-d2e133637604}, ! Handle
  AEDG K12 Nonres 5B Int Wall,            ! Name
  ,                                       ! Type
  Construction,                           ! Line Item Type
  AEDG K12 Nonres 5B Int Wall,            ! Item Name
  ,                                       ! Object End Use Key
  ,                                       ! Quantity {dimensionless}
  0,                                      ! Material Cost {$}
  CostPerArea;                            ! Material Cost Units

OS:ComponentData,
  {649da4fa-0562-4171-b8ce-1cce99c9bd8f}, ! Handle
  Component Data 1,                       ! Name
  {bdc908eb-5753-4c5c-8c41-99c843a7227b}, ! UUID
  {225b8bc0-06a0-4e7d-8186-d91d04f7044e}, ! Version UUID
  1363981895,                             ! Creation Timestamp
  1363981895,                             ! Version Timestamp
  {02409737-3e47-4a6d-8951-fa119c307981}, ! Name of Object 1
  {444ad32e-51a6-4347-8cce-3ae40b141fc2}, ! Name of Object 2
  {9c4717a0-4925-40d5-9e16-d2e133637604}; ! Name of Object 3

