
OS:Version,
  {8fbf793d-c519-43b3-9dbc-0378ca71429e}, ! Handle
  0.9.3;                                  ! Version Identifier

OS:ComponentCost:LineItem,
  {3dda237a-3afb-40da-bed5-c03bed4597e8}, ! Handle
  90.1-1999 Res B10 Ext Wall Metal Building, ! Name
  ,                                       ! Type
  Construction,                           ! Line Item Type
  90.1-1999 Res B10 Ext Wall Metal Building, ! Item Name
  ,                                       ! Object End Use Key
  ,                                       ! Quantity {dimensionless}
  98.78,                                  ! Material Cost {$}
  CostPerArea;                            ! Material Cost Units

OS:Construction,
  {229c5633-3608-4866-910a-8708f604abfd}, ! Handle
  90.1-1999 Res B10 Ext Wall Metal Building, ! Name
  ,                                       ! Surface Rendering Name
  {7122cb65-cc3f-4dad-98a8-665f8d0777f5}, ! Layer 1
  {3be15c51-a7ed-41fc-ba7d-2ecf70d1a2f6}, ! Layer 2
  {58ef6e55-8abb-48d5-bb65-c27cdc7e1ed5}; ! Layer 3

OS:Material,
  {7122cb65-cc3f-4dad-98a8-665f8d0777f5}, ! Handle
  Metal Siding,                           ! Name
  Smooth,                                 ! Roughness
  0.0015,                                 ! Thickness {m}
  44.96,                                  ! Conductivity {W/m-K}
  7688.86,                                ! Density {kg/m3}
  410,                                    ! Specific Heat {J/kg-K}
  0.9,                                    ! Thermal Absorptance
  0.2,                                    ! Solar Absorptance
  0.2;                                    ! Visible Absorptance

OS:Material,
  {3be15c51-a7ed-41fc-ba7d-2ecf70d1a2f6}, ! Handle
  Wall Insulation,                        ! Name
  MediumRough,                            ! Roughness
  0.0598725,                              ! Thickness {m}
  0.045,                                  ! Conductivity {W/m-K}
  265,                                    ! Density {kg/m3}
  836.8,                                  ! Specific Heat {J/kg-K}
  0.9,                                    ! Thermal Absorptance
  0.7,                                    ! Solar Absorptance
  0.7;                                    ! Visible Absorptance

OS:Material,
  {58ef6e55-8abb-48d5-bb65-c27cdc7e1ed5}, ! Handle
  1/2IN Gypsum,                           ! Name
  Smooth,                                 ! Roughness
  0.01271,                                ! Thickness {m}
  0.16,                                   ! Conductivity {W/m-K}
  784.9,                                  ! Density {kg/m3}
  830,                                    ! Specific Heat {J/kg-K}
  0.9,                                    ! Thermal Absorptance
  0.92,                                   ! Solar Absorptance
  0.92;                                   ! Visible Absorptance

