
OS:Version,
  {35eafc57-a7bd-4632-849c-23ba06742c96}, ! Handle
  0.9.3;                                  ! Version Identifier

OS:Construction,
  {c218b938-c473-4911-b924-c6e26b78dabe}, ! Handle
  90.1-1999 Res B10 Ext Wall Metal Building, ! Name
  ,                                       ! Surface Rendering Name
  {76bb38e6-0cea-45df-82d2-8ef37858c58a}, ! Layer 1
  {95a754ef-da8c-4fc0-883e-8890917e18ee}, ! Layer 2
  {ccb72d1d-f6f4-4774-a7bf-22002dffa73d}; ! Layer 3

OS:Material,
  {76bb38e6-0cea-45df-82d2-8ef37858c58a}, ! Handle
  Metal Siding,                           ! Name
  Smooth,                                 ! Roughness
  0.0015,                                 ! Thickness {m}
  44.96,                                  ! Conductivity {W/m-K}
  7688.86,                                ! Density {kg/m3}
  410,                                    ! Specific Heat {J/kg-K}
  0.9,                                    ! Thermal Absorptance
  0.2,                                    ! Solar Absorptance
  0.2;                                    ! Visible Absorptance

OS:Material,
  {95a754ef-da8c-4fc0-883e-8890917e18ee}, ! Handle
  Wall Insulation,                        ! Name
  MediumRough,                            ! Roughness
  0.0598725,                              ! Thickness {m}
  0.045,                                  ! Conductivity {W/m-K}
  265,                                    ! Density {kg/m3}
  836.8,                                  ! Specific Heat {J/kg-K}
  0.9,                                    ! Thermal Absorptance
  0.7,                                    ! Solar Absorptance
  0.7;                                    ! Visible Absorptance

OS:Material,
  {ccb72d1d-f6f4-4774-a7bf-22002dffa73d}, ! Handle
  1/2IN Gypsum,                           ! Name
  Smooth,                                 ! Roughness
  0.01271,                                ! Thickness {m}
  0.16,                                   ! Conductivity {W/m-K}
  784.9,                                  ! Density {kg/m3}
  830,                                    ! Specific Heat {J/kg-K}
  0.9,                                    ! Thermal Absorptance
  0.92,                                   ! Solar Absorptance
  0.92;                                   ! Visible Absorptance

OS:ComponentCost:LineItem,
  {6b402239-d57b-42d3-b342-2556659bfc05}, ! Handle
  90.1-1999 Res B10 Ext Wall Metal Building, ! Name
  ,                                       ! Type
  Construction,                           ! Line Item Type
  90.1-1999 Res B10 Ext Wall Metal Building, ! Item Name
  ,                                       ! Object End Use Key
  ,                                       ! Quantity {dimensionless}
  98.78,                                  ! Material Cost {$}
  CostPerArea;                            ! Material Cost Units

OS:ComponentData,
  {ed4f28e5-60fa-4c8f-ae48-8bd4f59580ef}, ! Handle
  Component Data 1,                       ! Name
  {aa597767-d24f-45c2-8c68-4eefe33d69ce}, ! UUID
  {c2c59915-0946-4f12-95fd-686302e165c1}, ! Version UUID
  1363981205,                             ! Creation Timestamp
  1363981205,                             ! Version Timestamp
  {c218b938-c473-4911-b924-c6e26b78dabe}, ! Name of Object 1
  {76bb38e6-0cea-45df-82d2-8ef37858c58a}, ! Name of Object 2
  {95a754ef-da8c-4fc0-883e-8890917e18ee}, ! Name of Object 3
  {ccb72d1d-f6f4-4774-a7bf-22002dffa73d}, ! Name of Object 4
  {6b402239-d57b-42d3-b342-2556659bfc05}; ! Name of Object 5

