
OS:Version,
  {3e393ea5-480b-4b41-8482-4289b5cd21a6}, ! Handle
  0.9.3;                                  ! Version Identifier

OS:Construction,
  {973a511f-1b95-4ff6-ab16-d5e7e939a923}, ! Handle
  90.1-2007 Res 8A Window Metal framing entrance door, ! Name
  ,                                       ! Surface Rendering Name
  {23b6ffaf-c923-4be2-b196-8659c479ad82}; ! Layer 1

OS:WindowMaterial:Glazing,
  {23b6ffaf-c923-4be2-b196-8659c479ad82}, ! Handle
  Theoretical Glass [190],                ! Name
  SpectralAverage,                        ! Optical Data Type
  ,                                       ! Window Glass Spectral Data Set Name
  0.003,                                  ! Thickness {m}
  0.440193,                               ! Solar Transmittance at Normal Incidence
  0.509807,                               ! Front Side Solar Reflectance at Normal Incidence
  0.509807,                               ! Back Side Solar Reflectance at Normal Incidence
  0.450308,                               ! Visible Transmittance at Normal Incidence
  0.499692,                               ! Front Side Visible Reflectance at Normal Incidence
  0.499692,                               ! Back Side Visible Reflectance at Normal Incidence
  0,                                      ! Infrared Transmittance at Normal Incidence
  0.9,                                    ! Front Side Infrared Hemispherical Emissivity
  0.9,                                    ! Back Side Infrared Hemispherical Emissivity
  0.0457755;                              ! Conductivity {W/m-K}

OS:ComponentCost:LineItem,
  {1ec16205-d039-4783-a628-ca553f7fd576}, ! Handle
  90.1-2007 Res 8A Window Metal framing entrance door, ! Name
  ,                                       ! Type
  Construction,                           ! Line Item Type
  90.1-2007 Res 8A Window Metal framing entrance door, ! Item Name
  ,                                       ! Object End Use Key
  ,                                       ! Quantity {dimensionless}
  508.362,                                ! Material Cost {$}
  CostPerArea;                            ! Material Cost Units

OS:ComponentData,
  {2578245b-8d7f-4fb0-a1b7-2b8e009fac6b}, ! Handle
  Component Data 1,                       ! Name
  {05392824-5d82-4366-88bf-36889350a710}, ! UUID
  {6fe15acd-c8b4-4287-81b0-9cd745f016f1}, ! Version UUID
  1363981880,                             ! Creation Timestamp
  1363981880,                             ! Version Timestamp
  {973a511f-1b95-4ff6-ab16-d5e7e939a923}, ! Name of Object 1
  {23b6ffaf-c923-4be2-b196-8659c479ad82}, ! Name of Object 2
  {1ec16205-d039-4783-a628-ca553f7fd576}; ! Name of Object 3

