
OS:Version,
  {eba3edee-576f-4337-9b0e-efff1ff9d568}, ! Handle
  0.9.3;                                  ! Version Identifier

OS:Construction,
  {548e5f55-b0e6-4652-acf9-bc8a1d33916f}, ! Handle
  AEDG SHC Nonres 8A Ext Wall Mass,       ! Name
  ,                                       ! Surface Rendering Name
  {0f39972d-40fa-4674-8380-ae59bffc8ebd}, ! Layer 1
  {9d6b8824-a1f4-45d2-905d-0407ed4be9a0}, ! Layer 2
  {a51fd96b-e718-492e-b0b9-24ea4340589f}, ! Layer 3
  {cfe0a1c4-9f23-4eb5-9a02-fdbf26ee5429}; ! Layer 4

OS:Material,
  {0f39972d-40fa-4674-8380-ae59bffc8ebd}, ! Handle
  1IN Stucco,                             ! Name
  Smooth,                                 ! Roughness
  0.0253,                                 ! Thickness {m}
  0.6918,                                 ! Conductivity {W/m-K}
  1858,                                   ! Density {kg/m3}
  837,                                    ! Specific Heat {J/kg-K}
  0.9,                                    ! Thermal Absorptance
  0.92,                                   ! Solar Absorptance
  0.92;                                   ! Visible Absorptance

OS:Material,
  {9d6b8824-a1f4-45d2-905d-0407ed4be9a0}, ! Handle
  8IN Concrete HW,                        ! Name
  MediumRough,                            ! Roughness
  0.2033,                                 ! Thickness {m}
  1.7296,                                 ! Conductivity {W/m-K}
  2243,                                   ! Density {kg/m3}
  837,                                    ! Specific Heat {J/kg-K}
  0.9,                                    ! Thermal Absorptance
  0.65,                                   ! Solar Absorptance
  0.65;                                   ! Visible Absorptance

OS:Material,
  {a51fd96b-e718-492e-b0b9-24ea4340589f}, ! Handle
  Wall Insulation [65],                   ! Name
  MediumRough,                            ! Roughness
  0.138766,                               ! Thickness {m}
  0.0432,                                 ! Conductivity {W/m-K}
  91,                                     ! Density {kg/m3}
  837,                                    ! Specific Heat {J/kg-K}
  0.9,                                    ! Thermal Absorptance
  0.5,                                    ! Solar Absorptance
  0.5;                                    ! Visible Absorptance

OS:Material,
  {cfe0a1c4-9f23-4eb5-9a02-fdbf26ee5429}, ! Handle
  1/2IN Gypsum,                           ! Name
  Smooth,                                 ! Roughness
  0.01271,                                ! Thickness {m}
  0.16,                                   ! Conductivity {W/m-K}
  784.9,                                  ! Density {kg/m3}
  830,                                    ! Specific Heat {J/kg-K}
  0.9,                                    ! Thermal Absorptance
  0.92,                                   ! Solar Absorptance
  0.92;                                   ! Visible Absorptance

OS:ComponentCost:LineItem,
  {bdf56577-6071-4f46-ad24-0a3258b73808}, ! Handle
  AEDG SHC Nonres 8A Ext Wall Mass,       ! Name
  ,                                       ! Type
  Construction,                           ! Line Item Type
  AEDG SHC Nonres 8A Ext Wall Mass,       ! Item Name
  ,                                       ! Object End Use Key
  ,                                       ! Quantity {dimensionless}
  0,                                      ! Material Cost {$}
  CostPerArea;                            ! Material Cost Units

