
OS:Version,
  {353b288b-b328-44dd-9bce-7d562904dab8}, ! Handle
  0.9.3;                                  ! Version Identifier

OS:Construction,
  {7fece7b0-a3ea-4d72-ae6c-6fef8b926aea}, ! Handle
  90.1 Constructions Roof Attic and Other R-13.0, ! Name
  ,                                       ! Surface Rendering Name
  {718aa793-4a46-4866-90f5-83880f38af7a}, ! Layer 1
  {00dd1115-e659-4901-9421-78de807b0f88}, ! Layer 2
  {67a94940-1724-4c2d-ae97-4878b78493e4}, ! Layer 3
  {de802ee3-8169-42ea-bfda-4137cda95ca0}; ! Layer 4

OS:Material,
  {718aa793-4a46-4866-90f5-83880f38af7a}, ! Handle
  Wood Shingles,                          ! Name
  VeryRough,                              ! Roughness
  0.0178,                                 ! Thickness {m}
  0.115,                                  ! Conductivity {W/m-K}
  513,                                    ! Density {kg/m3}
  1255,                                   ! Specific Heat {J/kg-K}
  0.9,                                    ! Thermal Absorptance
  0.78,                                   ! Solar Absorptance
  0.78;                                   ! Visible Absorptance

OS:Material,
  {00dd1115-e659-4901-9421-78de807b0f88}, ! Handle
  1IN Wood Decking,                       ! Name
  MediumSmooth,                           ! Roughness
  0.0254,                                 ! Thickness {m}
  0.1211,                                 ! Conductivity {W/m-K}
  593,                                    ! Density {kg/m3}
  2510,                                   ! Specific Heat {J/kg-K}
  0.9,                                    ! Thermal Absorptance
  0.78,                                   ! Solar Absorptance
  0.78;                                   ! Visible Absorptance

OS:Material,
  {67a94940-1724-4c2d-ae97-4878b78493e4}, ! Handle
  Roof Insulation [67],                   ! Name
  MediumRough,                            ! Roughness
  0.0757532,                              ! Thickness {m}
  0.049,                                  ! Conductivity {W/m-K}
  265,                                    ! Density {kg/m3}
  836.8,                                  ! Specific Heat {J/kg-K}
  0.9,                                    ! Thermal Absorptance
  0.7,                                    ! Solar Absorptance
  0.7;                                    ! Visible Absorptance

OS:Material,
  {de802ee3-8169-42ea-bfda-4137cda95ca0}, ! Handle
  1/2IN Gypsum,                           ! Name
  Smooth,                                 ! Roughness
  0.01271,                                ! Thickness {m}
  0.16,                                   ! Conductivity {W/m-K}
  784.9,                                  ! Density {kg/m3}
  830,                                    ! Specific Heat {J/kg-K}
  0.9,                                    ! Thermal Absorptance
  0.92,                                   ! Solar Absorptance
  0.92;                                   ! Visible Absorptance

OS:ComponentCost:LineItem,
  {58bc5a94-e5bc-47e9-bbda-93809b580021}, ! Handle
  90.1 Constructions Roof Attic and Other R-13.0, ! Name
  ,                                       ! Type
  Construction,                           ! Line Item Type
  90.1 Constructions Roof Attic and Other R-13.0, ! Item Name
  ,                                       ! Object End Use Key
  ,                                       ! Quantity {dimensionless}
  31.152,                                 ! Material Cost {$}
  CostPerArea;                            ! Material Cost Units

OS:ComponentData,
  {dc17ead8-8fea-41bd-a7e5-d79577fb7cab}, ! Handle
  Component Data 1,                       ! Name
  {9cb3f203-447f-41c2-a67e-0dba2e9f447e}, ! UUID
  {0bbb02a9-96c5-4f3f-bc30-db5b67c871a6}, ! Version UUID
  1363980993,                             ! Creation Timestamp
  1363980993,                             ! Version Timestamp
  {7fece7b0-a3ea-4d72-ae6c-6fef8b926aea}, ! Name of Object 1
  {718aa793-4a46-4866-90f5-83880f38af7a}, ! Name of Object 2
  {00dd1115-e659-4901-9421-78de807b0f88}, ! Name of Object 3
  {67a94940-1724-4c2d-ae97-4878b78493e4}, ! Name of Object 4
  {de802ee3-8169-42ea-bfda-4137cda95ca0}, ! Name of Object 5
  {58bc5a94-e5bc-47e9-bbda-93809b580021}; ! Name of Object 6

