
OS:Version,
  {3c39a9b0-ecd6-4b86-82d4-90b9a68db661}, ! Handle
  0.9.3;                                  ! Version Identifier

OS:Material,
  {731c8f73-02e0-433e-9ed7-747994f128d6}, ! Handle
  1IN Wood Decking,                       ! Name
  MediumSmooth,                           ! Roughness
  0.0254,                                 ! Thickness {m}
  0.1211,                                 ! Conductivity {W/m-K}
  593,                                    ! Density {kg/m3}
  2510,                                   ! Specific Heat {J/kg-K}
  0.9,                                    ! Thermal Absorptance
  0.78,                                   ! Solar Absorptance
  0.78;                                   ! Visible Absorptance

OS:ComponentCost:LineItem,
  {6562c3d8-8c3b-4df4-aa67-9bfa46f32a52}, ! Handle
  90.1 Constructions Roof Attic and Other R-13.0, ! Name
  ,                                       ! Type
  Construction,                           ! Line Item Type
  90.1 Constructions Roof Attic and Other R-13.0, ! Item Name
  ,                                       ! Object End Use Key
  ,                                       ! Quantity {dimensionless}
  31.152,                                 ! Material Cost {$}
  CostPerArea;                            ! Material Cost Units

OS:Material,
  {bee494b1-2bba-4b86-9e03-ade743d3a449}, ! Handle
  Roof Insulation [67],                   ! Name
  MediumRough,                            ! Roughness
  0.0757532,                              ! Thickness {m}
  0.049,                                  ! Conductivity {W/m-K}
  265,                                    ! Density {kg/m3}
  836.8,                                  ! Specific Heat {J/kg-K}
  0.9,                                    ! Thermal Absorptance
  0.7,                                    ! Solar Absorptance
  0.7;                                    ! Visible Absorptance

OS:Material,
  {22150b1e-d28c-4090-a093-5b25c4e368a3}, ! Handle
  1/2IN Gypsum,                           ! Name
  Smooth,                                 ! Roughness
  0.01271,                                ! Thickness {m}
  0.16,                                   ! Conductivity {W/m-K}
  784.9,                                  ! Density {kg/m3}
  830,                                    ! Specific Heat {J/kg-K}
  0.9,                                    ! Thermal Absorptance
  0.92,                                   ! Solar Absorptance
  0.92;                                   ! Visible Absorptance

OS:Material,
  {48fabad2-fc71-40b7-84b7-bcacb69c544f}, ! Handle
  Wood Shingles,                          ! Name
  VeryRough,                              ! Roughness
  0.0178,                                 ! Thickness {m}
  0.115,                                  ! Conductivity {W/m-K}
  513,                                    ! Density {kg/m3}
  1255,                                   ! Specific Heat {J/kg-K}
  0.9,                                    ! Thermal Absorptance
  0.78,                                   ! Solar Absorptance
  0.78;                                   ! Visible Absorptance

OS:Construction,
  {5baf3df2-ba50-4d5d-940f-94aa5e149745}, ! Handle
  90.1 Constructions Roof Attic and Other R-13.0, ! Name
  ,                                       ! Surface Rendering Name
  {48fabad2-fc71-40b7-84b7-bcacb69c544f}, ! Layer 1
  {731c8f73-02e0-433e-9ed7-747994f128d6}, ! Layer 2
  {bee494b1-2bba-4b86-9e03-ade743d3a449}, ! Layer 3
  {22150b1e-d28c-4090-a093-5b25c4e368a3}; ! Layer 4

