
OS:Version,
  {6104c945-829d-4d8b-8a74-fae88c418578}, ! Handle
  0.9.3;                                  ! Version Identifier

OS:Construction,
  {641a874a-e721-4f9f-9e37-8c34fd494feb}, ! Handle
  90.1-2007 Nonres 3A Ext Wall Steel-Framed, ! Name
  ,                                       ! Surface Rendering Name
  {deb8bc48-24f6-4716-b9e5-c341af39b269}, ! Layer 1
  {17f8f1c9-176a-4a98-b058-8661727c1c63}, ! Layer 2
  {9d77d9c7-d71f-48bb-834e-7a234227174b}; ! Layer 3

OS:Material:NoMass,
  {deb8bc48-24f6-4716-b9e5-c341af39b269}, ! Handle
  MAT-SHEATH,                             ! Name
  Rough,                                  ! Roughness
  0.36256,                                ! Thermal Resistance {m2-K/W}
  0.9,                                    ! Thermal Absorptance
  0.7,                                    ! Solar Absorptance
  0.7;                                    ! Visible Absorptance

OS:Material,
  {17f8f1c9-176a-4a98-b058-8661727c1c63}, ! Handle
  Wall Insulation [6],                    ! Name
  MediumRough,                            ! Roughness
  0.0678449,                              ! Thickness {m}
  0.045,                                  ! Conductivity {W/m-K}
  265,                                    ! Density {kg/m3}
  836.8,                                  ! Specific Heat {J/kg-K}
  0.9,                                    ! Thermal Absorptance
  0.7,                                    ! Solar Absorptance
  0.7;                                    ! Visible Absorptance

OS:Material,
  {9d77d9c7-d71f-48bb-834e-7a234227174b}, ! Handle
  1/2IN Gypsum,                           ! Name
  Smooth,                                 ! Roughness
  0.01271,                                ! Thickness {m}
  0.16,                                   ! Conductivity {W/m-K}
  784.9,                                  ! Density {kg/m3}
  830,                                    ! Specific Heat {J/kg-K}
  0.9,                                    ! Thermal Absorptance
  0.92,                                   ! Solar Absorptance
  0.92;                                   ! Visible Absorptance

OS:ComponentCost:LineItem,
  {9da1d63b-7a64-415f-bac1-65c8ed7371c5}, ! Handle
  90.1-2007 Nonres 3A Ext Wall Steel-Framed, ! Name
  ,                                       ! Type
  Construction,                           ! Line Item Type
  90.1-2007 Nonres 3A Ext Wall Steel-Framed, ! Item Name
  ,                                       ! Object End Use Key
  ,                                       ! Quantity {dimensionless}
  91.749,                                 ! Material Cost {$}
  CostPerArea;                            ! Material Cost Units

OS:ComponentData,
  {51b97507-7083-417c-a795-34badab32570}, ! Handle
  Component Data 1,                       ! Name
  {9348d681-52ab-44f5-9d19-d609d5c5b85c}, ! UUID
  {b2de129a-0422-4fe9-a522-9b90aee4b7d6}, ! Version UUID
  1363981795,                             ! Creation Timestamp
  1363981795,                             ! Version Timestamp
  {641a874a-e721-4f9f-9e37-8c34fd494feb}, ! Name of Object 1
  {deb8bc48-24f6-4716-b9e5-c341af39b269}, ! Name of Object 2
  {17f8f1c9-176a-4a98-b058-8661727c1c63}, ! Name of Object 3
  {9d77d9c7-d71f-48bb-834e-7a234227174b}, ! Name of Object 4
  {9da1d63b-7a64-415f-bac1-65c8ed7371c5}; ! Name of Object 5

