
OS:Version,
  {04123707-b689-46d4-9ca3-71ab0a1b10b7}, ! Handle
  0.9.3;                                  ! Version Identifier

OS:Material,
  {52ff52c8-089c-4846-ac32-0f10debd40bd}, ! Handle
  Roof Insulation [14],                   ! Name
  MediumRough,                            ! Roughness
  0.167335,                               ! Thickness {m}
  0.049,                                  ! Conductivity {W/m-K}
  265,                                    ! Density {kg/m3}
  836.8,                                  ! Specific Heat {J/kg-K}
  0.9,                                    ! Thermal Absorptance
  0.7,                                    ! Solar Absorptance
  0.7;                                    ! Visible Absorptance

OS:ComponentCost:LineItem,
  {73342be5-909e-440e-ac0d-2c2280b67dfe}, ! Handle
  90.1-2007 Nonres 5B Roof IEAD,          ! Name
  ,                                       ! Type
  Construction,                           ! Line Item Type
  90.1-2007 Nonres 5B Roof IEAD,          ! Item Name
  ,                                       ! Object End Use Key
  ,                                       ! Quantity {dimensionless}
  52.87,                                  ! Material Cost {$}
  CostPerArea;                            ! Material Cost Units

OS:Material,
  {33290278-1cb6-4c29-a666-4fa0849e2876}, ! Handle
  Roof Membrane,                          ! Name
  VeryRough,                              ! Roughness
  0.0095,                                 ! Thickness {m}
  0.16,                                   ! Conductivity {W/m-K}
  1121.29,                                ! Density {kg/m3}
  1460,                                   ! Specific Heat {J/kg-K}
  0.9,                                    ! Thermal Absorptance
  0.7,                                    ! Solar Absorptance
  0.7;                                    ! Visible Absorptance

OS:Material,
  {6c64c143-4b16-46c2-bcfa-fd9f97613c15}, ! Handle
  Metal Decking,                          ! Name
  MediumSmooth,                           ! Roughness
  0.001524,                               ! Thickness {m}
  45.006,                                 ! Conductivity {W/m-K}
  7680,                                   ! Density {kg/m3}
  418.4,                                  ! Specific Heat {J/kg-K}
  0.9,                                    ! Thermal Absorptance
  0.7,                                    ! Solar Absorptance
  0.3;                                    ! Visible Absorptance

OS:Construction,
  {868e9411-b51d-4ad0-ad51-4ad6e6d6bd9c}, ! Handle
  90.1-2007 Nonres 5B Roof IEAD,          ! Name
  ,                                       ! Surface Rendering Name
  {33290278-1cb6-4c29-a666-4fa0849e2876}, ! Layer 1
  {52ff52c8-089c-4846-ac32-0f10debd40bd}, ! Layer 2
  {6c64c143-4b16-46c2-bcfa-fd9f97613c15}; ! Layer 3

