
OS:Version,
  {6e40b1c2-948d-48a9-b197-595a54aff1d5}, ! Handle
  0.9.3;                                  ! Version Identifier

OS:WindowMaterial:Glazing,
  {7fb441c0-ef7f-4871-99c9-9b45c8e39651}, ! Handle
  Theoretical Glass [196],                ! Name
  SpectralAverage,                        ! Optical Data Type
  ,                                       ! Window Glass Spectral Data Set Name
  0.003,                                  ! Thickness {m}
  0.172982,                               ! Solar Transmittance at Normal Incidence
  0.777018,                               ! Front Side Solar Reflectance at Normal Incidence
  0.777018,                               ! Back Side Solar Reflectance at Normal Incidence
  0.242683,                               ! Visible Transmittance at Normal Incidence
  0.707317,                               ! Front Side Visible Reflectance at Normal Incidence
  0.707317,                               ! Back Side Visible Reflectance at Normal Incidence
  0,                                      ! Infrared Transmittance at Normal Incidence
  0.9,                                    ! Front Side Infrared Hemispherical Emissivity
  0.9,                                    ! Back Side Infrared Hemispherical Emissivity
  0.0207247;                              ! Conductivity {W/m-K}

OS:Construction,
  {af5ef82d-cd53-43f3-8774-3d5a2ed6face}, ! Handle
  189.1-2009 Res 2A Skylight without Curb, ! Name
  ,                                       ! Surface Rendering Name
  {7fb441c0-ef7f-4871-99c9-9b45c8e39651}; ! Layer 1

OS:ComponentCost:LineItem,
  {454388c4-af96-4b35-9e19-d84f9e659fda}, ! Handle
  189.1-2009 Res 2A Skylight without Curb, ! Name
  ,                                       ! Type
  Construction,                           ! Line Item Type
  189.1-2009 Res 2A Skylight without Curb, ! Item Name
  ,                                       ! Object End Use Key
  ,                                       ! Quantity {dimensionless}
  572.169,                                ! Material Cost {$}
  CostPerArea;                            ! Material Cost Units

