
OS:Version,
  {61315d86-5dd5-478b-bdbe-230e3747a3e0}, ! Handle
  0.9.3;                                  ! Version Identifier

OS:Construction,
  {b77eb2cc-32a1-4572-8385-6219cbec1955}, ! Handle
  189.1-2009 Res 2A Skylight without Curb, ! Name
  ,                                       ! Surface Rendering Name
  {61c43212-cf41-487d-bb25-1b1c81ecae8b}; ! Layer 1

OS:WindowMaterial:Glazing,
  {61c43212-cf41-487d-bb25-1b1c81ecae8b}, ! Handle
  Theoretical Glass [196],                ! Name
  SpectralAverage,                        ! Optical Data Type
  ,                                       ! Window Glass Spectral Data Set Name
  0.003,                                  ! Thickness {m}
  0.172982,                               ! Solar Transmittance at Normal Incidence
  0.777018,                               ! Front Side Solar Reflectance at Normal Incidence
  0.777018,                               ! Back Side Solar Reflectance at Normal Incidence
  0.242683,                               ! Visible Transmittance at Normal Incidence
  0.707317,                               ! Front Side Visible Reflectance at Normal Incidence
  0.707317,                               ! Back Side Visible Reflectance at Normal Incidence
  0,                                      ! Infrared Transmittance at Normal Incidence
  0.9,                                    ! Front Side Infrared Hemispherical Emissivity
  0.9,                                    ! Back Side Infrared Hemispherical Emissivity
  0.0207247;                              ! Conductivity {W/m-K}

OS:ComponentCost:LineItem,
  {c77ab321-6487-4723-acad-9bdc3347981b}, ! Handle
  189.1-2009 Res 2A Skylight without Curb, ! Name
  ,                                       ! Type
  Construction,                           ! Line Item Type
  189.1-2009 Res 2A Skylight without Curb, ! Item Name
  ,                                       ! Object End Use Key
  ,                                       ! Quantity {dimensionless}
  572.169,                                ! Material Cost {$}
  CostPerArea;                            ! Material Cost Units

OS:ComponentData,
  {91e5947a-4c8a-41b8-bc0a-9c9323c837e6}, ! Handle
  Component Data 1,                       ! Name
  {9c088a83-d67a-47f0-9468-109b270fec86}, ! UUID
  {9dc4967c-905e-4162-bcf9-8ad4d9412d93}, ! Version UUID
  1363980965,                             ! Creation Timestamp
  1363980965,                             ! Version Timestamp
  {b77eb2cc-32a1-4572-8385-6219cbec1955}, ! Name of Object 1
  {61c43212-cf41-487d-bb25-1b1c81ecae8b}, ! Name of Object 2
  {c77ab321-6487-4723-acad-9bdc3347981b}; ! Name of Object 3

