
OS:Version,
  {d4db41c2-5af0-45ed-86c2-2382596d43ff}, ! Handle
  0.9.3;                                  ! Version Identifier

OS:Material,
  {6920931c-9653-4ed4-a1e1-35b784862f4f}, ! Handle
  1/2IN Gypsum,                           ! Name
  Smooth,                                 ! Roughness
  0.01271,                                ! Thickness {m}
  0.16,                                   ! Conductivity {W/m-K}
  784.9,                                  ! Density {kg/m3}
  830,                                    ! Specific Heat {J/kg-K}
  0.9,                                    ! Thermal Absorptance
  0.92,                                   ! Solar Absorptance
  0.92;                                   ! Visible Absorptance

OS:Material,
  {9d1bbe7d-3336-4bdc-83b6-6d24da426e7c}, ! Handle
  Wall Insulation [33],                   ! Name
  MediumRough,                            ! Roughness
  0.078148,                               ! Thickness {m}
  0.045,                                  ! Conductivity {W/m-K}
  265,                                    ! Density {kg/m3}
  836.8,                                  ! Specific Heat {J/kg-K}
  0.9,                                    ! Thermal Absorptance
  0.7,                                    ! Solar Absorptance
  0.7;                                    ! Visible Absorptance

OS:Construction,
  {5bd76e84-53fa-4cc6-b906-67bfa4b7e682}, ! Handle
  189.1-2009 Nonres 1A Ext Wall Steel-Framed, ! Name
  ,                                       ! Surface Rendering Name
  {e4a91cb8-ab38-4457-99bf-e20c02fa0928}, ! Layer 1
  {9d1bbe7d-3336-4bdc-83b6-6d24da426e7c}, ! Layer 2
  {6920931c-9653-4ed4-a1e1-35b784862f4f}; ! Layer 3

OS:Material:NoMass,
  {e4a91cb8-ab38-4457-99bf-e20c02fa0928}, ! Handle
  MAT-SHEATH,                             ! Name
  Rough,                                  ! Roughness
  0.36256,                                ! Thermal Resistance {m2-K/W}
  0.9,                                    ! Thermal Absorptance
  0.7,                                    ! Solar Absorptance
  0.7;                                    ! Visible Absorptance

OS:ComponentCost:LineItem,
  {a2734c0b-ed80-4e0e-bd96-d0d5bab458b7}, ! Handle
  189.1-2009 Nonres 1A Ext Wall Steel-Framed, ! Name
  ,                                       ! Type
  Construction,                           ! Line Item Type
  189.1-2009 Nonres 1A Ext Wall Steel-Framed, ! Item Name
  ,                                       ! Object End Use Key
  ,                                       ! Quantity {dimensionless}
  92.941,                                 ! Material Cost {$}
  CostPerArea;                            ! Material Cost Units

