
OS:Version,
  {6e17a99e-50a7-4b7a-8eca-ac92b802c4b7}, !- Handle
  1.0.6;                                  !- Version Identifier

OS:Construction,
  {7193deb1-d8c4-4851-ae47-f87a6a2a925e}, !- Handle
  189.1-2011 NONRES 5B NONMETAL FRAMING,  !- Name
  ,                                       !- Surface Rendering Name
  {1065ddea-716d-4b6c-a70e-c8b3d5ae84a8}; !- Layer 1

OS:WindowMaterial:Glazing,
  {1065ddea-716d-4b6c-a70e-c8b3d5ae84a8}, !- Handle
  189.1-2011 NONRES 5B NONMETAL FRAMING THEORETICAL GLAZING, !- Name
  SpectralAverage,                        !- Optical Data Type
  ,                                       !- Window Glass Spectral Data Set Name
  0.04563,                                !- Thickness {m}
  0.26293,                                !- Solar Transmittance at Normal Incidence
  0.54099,                                !- Front Side Solar Reflectance at Normal Incidence
  0.54099,                                !- Back Side Solar Reflectance at Normal Incidence
  0.26293,                                !- Visible Transmittance at Normal Incidence
  0.54099,                                !- Front Side Visible Reflectance at Normal Incidence
  0.54099,                                !- Back Side Visible Reflectance at Normal Incidence
  0,                                      !- Infrared Transmittance at Normal Incidence
  0.84,                                   !- Front Side Infrared Hemispherical Emissivity
  0.84,                                   !- Back Side Infrared Hemispherical Emissivity
  0.08632,                                !- Conductivity {W/m-K}
  1,                                      !- Dirt Correction Factor for Solar and Visible Transmittance
  No;                                     !- Solar Diffusing

OS:ComponentData,
  {5e1a611f-d958-41ec-a248-d4b692cd7d02}, !- Handle
  Component Data 1,                       !- Name
  {09b0c91d-e9ed-4a6f-93a0-0b1baef233a2}, !- UUID
  {6a506770-a454-4241-bbf9-ba32c902aba4}, !- Version UUID
  1380911254,                             !- Creation Timestamp
  1380911254,                             !- Version Timestamp
  {7193deb1-d8c4-4851-ae47-f87a6a2a925e}, !- Name of Object 1
  {1065ddea-716d-4b6c-a70e-c8b3d5ae84a8}; !- Name of Object 2

