
OS:Version,
  {34ee879f-0c5c-4b27-993a-2abad3447297}, !- Handle
  1.0.6;                                  !- Version Identifier

OS:WindowMaterial:Glazing,
  {d30d32bc-f436-4c8f-beaa-8d73cfdad4e2}, !- Handle
  189.1-2011 NONRES 5B NONMETAL FRAMING THEORETICAL GLAZING, !- Name
  SpectralAverage,                        !- Optical Data Type
  ,                                       !- Window Glass Spectral Data Set Name
  0.04563,                                !- Thickness {m}
  0.26293,                                !- Solar Transmittance at Normal Incidence
  0.54099,                                !- Front Side Solar Reflectance at Normal Incidence
  0.54099,                                !- Back Side Solar Reflectance at Normal Incidence
  0.26293,                                !- Visible Transmittance at Normal Incidence
  0.54099,                                !- Front Side Visible Reflectance at Normal Incidence
  0.54099,                                !- Back Side Visible Reflectance at Normal Incidence
  0,                                      !- Infrared Transmittance at Normal Incidence
  0.84,                                   !- Front Side Infrared Hemispherical Emissivity
  0.84,                                   !- Back Side Infrared Hemispherical Emissivity
  0.08632,                                !- Conductivity {W/m-K}
  1,                                      !- Dirt Correction Factor for Solar and Visible Transmittance
  No;                                     !- Solar Diffusing

OS:Construction,
  {1e41a32e-dbe7-459b-95f0-00ceda6d0b79}, !- Handle
  189.1-2011 NONRES 5B NONMETAL FRAMING,  !- Name
  ,                                       !- Surface Rendering Name
  {d30d32bc-f436-4c8f-beaa-8d73cfdad4e2}; !- Layer 1

