
OS:Version,
  {5f0180ab-c95c-4f9c-a431-b3d98d21abb7}, ! Handle
  0.9.3;                                  ! Version Identifier

OS:ComponentCost:LineItem,
  {d53d76b6-9e77-4797-a7b3-0008a50aed77}, ! Handle
  90.1-1999 Nonres B3 Window Fixed,       ! Name
  ,                                       ! Type
  Construction,                           ! Line Item Type
  90.1-1999 Nonres B3 Window Fixed,       ! Item Name
  ,                                       ! Object End Use Key
  ,                                       ! Quantity {dimensionless}
  455.638,                                ! Material Cost {$}
  CostPerArea;                            ! Material Cost Units

OS:Construction,
  {a84c0f92-c660-4f87-b198-a8ce26a6fbeb}, ! Handle
  90.1-1999 Nonres B3 Window Fixed,       ! Name
  ,                                       ! Surface Rendering Name
  {408fbd8c-a148-4be2-bd89-4934742413e0}; ! Layer 1

OS:WindowMaterial:Glazing,
  {408fbd8c-a148-4be2-bd89-4934742413e0}, ! Handle
  Theoretical Glass [10],                 ! Name
  SpectralAverage,                        ! Optical Data Type
  ,                                       ! Window Glass Spectral Data Set Name
  0.003,                                  ! Thickness {m}
  0.455799,                               ! Solar Transmittance at Normal Incidence
  0.494201,                               ! Front Side Solar Reflectance at Normal Incidence
  0.494201,                               ! Back Side Solar Reflectance at Normal Incidence
  0.505402,                               ! Visible Transmittance at Normal Incidence
  0.444598,                               ! Front Side Visible Reflectance at Normal Incidence
  0.444598,                               ! Back Side Visible Reflectance at Normal Incidence
  0,                                      ! Infrared Transmittance at Normal Incidence
  0.999,                                  ! Front Side Infrared Hemispherical Emissivity
  0.999,                                  ! Back Side Infrared Hemispherical Emissivity
  3.36874;                                ! Conductivity {W/m-K}

