
OS:Version,
  {c86248c0-177b-4557-88cb-5cbfec899554}, ! Handle
  0.9.3;                                  ! Version Identifier

OS:Construction,
  {1c06d458-c7be-442b-944f-d72543e3794f}, ! Handle
  90.1-2001 Res B1 Int Wall,              ! Name
  ,                                       ! Surface Rendering Name
  {5bb0afb5-4bb5-4f88-86e9-9cd500060c28}, ! Layer 1
  {5bb0afb5-4bb5-4f88-86e9-9cd500060c28}; ! Layer 2

OS:Material,
  {5bb0afb5-4bb5-4f88-86e9-9cd500060c28}, ! Handle
  GP01 1/2 GYPSUM,                        ! Name
  Smooth,                                 ! Roughness
  0.01271,                                ! Thickness {m}
  0.16,                                   ! Conductivity {W/m-K}
  800,                                    ! Density {kg/m3}
  1090,                                   ! Specific Heat {J/kg-K}
  0.9,                                    ! Thermal Absorptance
  0.7,                                    ! Solar Absorptance
  0.5;                                    ! Visible Absorptance

OS:ComponentCost:LineItem,
  {8d3e3a56-4d77-41fa-9f02-b7d956b5c36f}, ! Handle
  90.1-2001 Res B1 Int Wall,              ! Name
  ,                                       ! Type
  Construction,                           ! Line Item Type
  90.1-2001 Res B1 Int Wall,              ! Item Name
  ,                                       ! Object End Use Key
  ,                                       ! Quantity {dimensionless}
  0,                                      ! Material Cost {$}
  CostPerArea;                            ! Material Cost Units

OS:ComponentData,
  {01fc71e5-ad95-46e3-8787-9577e381ac75}, ! Handle
  Component Data 1,                       ! Name
  {0669103e-b9f2-4c2b-a7ac-8922de34446f}, ! UUID
  {17fb248d-9104-42cd-8ff2-6d3373db738a}, ! Version UUID
  1363981444,                             ! Creation Timestamp
  1363981444,                             ! Version Timestamp
  {1c06d458-c7be-442b-944f-d72543e3794f}, ! Name of Object 1
  {5bb0afb5-4bb5-4f88-86e9-9cd500060c28}, ! Name of Object 2
  {8d3e3a56-4d77-41fa-9f02-b7d956b5c36f}; ! Name of Object 3

