
OS:Version,
  {b02ce888-2d5c-4a17-bf02-174426956256}, ! Handle
  0.9.3;                                  ! Version Identifier

OS:Material,
  {7316f90f-e9e2-4ccb-b1b4-dfb6bfc3f34a}, ! Handle
  GP01 1/2 GYPSUM,                        ! Name
  Smooth,                                 ! Roughness
  0.01271,                                ! Thickness {m}
  0.16,                                   ! Conductivity {W/m-K}
  800,                                    ! Density {kg/m3}
  1090,                                   ! Specific Heat {J/kg-K}
  0.9,                                    ! Thermal Absorptance
  0.7,                                    ! Solar Absorptance
  0.5;                                    ! Visible Absorptance

OS:Material,
  {e1060546-6100-46d4-ae6e-94eb9ac3427c}, ! Handle
  GP01 1/2 GYPSUM 1,                      ! Name
  Smooth,                                 ! Roughness
  0.01271,                                ! Thickness {m}
  0.16,                                   ! Conductivity {W/m-K}
  800,                                    ! Density {kg/m3}
  1090,                                   ! Specific Heat {J/kg-K}
  0.9,                                    ! Thermal Absorptance
  0.7,                                    ! Solar Absorptance
  0.5;                                    ! Visible Absorptance

OS:Construction,
  {1710ee90-46b2-4d27-991b-36cdebcab353}, ! Handle
  90.1-2001 Res B1 Int Wall,              ! Name
  ,                                       ! Surface Rendering Name
  {7316f90f-e9e2-4ccb-b1b4-dfb6bfc3f34a}, ! Layer 1
  {7316f90f-e9e2-4ccb-b1b4-dfb6bfc3f34a}; ! Layer 2

OS:ComponentCost:LineItem,
  {3c03d0e5-583f-40d0-b0f5-9062bdb70c1b}, ! Handle
  90.1-2001 Res B1 Int Wall,              ! Name
  ,                                       ! Type
  Construction,                           ! Line Item Type
  90.1-2001 Res B1 Int Wall,              ! Item Name
  ,                                       ! Object End Use Key
  ,                                       ! Quantity {dimensionless}
  0,                                      ! Material Cost {$}
  CostPerArea;                            ! Material Cost Units

