
! 
OS:Version,
  {9c37d538-db0d-4a47-9850-5bede7e76bd5}, !- Handle
  1.13.0;                                 !- Version Identifier


! {"nombreProductoCorto": "CLIMALIT PLUS con COOL LITE ST 150 F2 6 (16 argon90%) 44.2", "codigoEAN": "", "handle": "d112ab52-7c79-4bbd-b5bd-a7abdfcbe7bd", "g": 0.46, "tV": 0.46, "u": 2.5, "nombreProducto": "CLIMALIT PLUS con COOL LITE ST 150 F2 6 (16 argon90%) 44.2\nU:2.5 W/m2K - g:0.46 - Tv: 0.46"}
OS:WindowMaterial:SimpleGlazingSystem,
  {d112ab52-7c79-4bbd-b5bd-a7abdfcbe7bd}, !- Handle
  CLIMALIT PLUS con COOL LITE ST 150 F2 6 (16 argon90%) 44.2, !- Name
  2.5,                                    !- U-Factor {W/m2-K}
  0.46,                                    !- Solar Heat Gain Coefficient
  0.46;                                    !- Visible Transmittance     
  
  
OS:Construction,
  {aeadd580-3884-40c4-ba74-a05f43df351b}, !- Handle
  CLIMALIT PLUS con COOL LITE ST 150 F2 6 (16 argon90%) 44.2,                         !- Name
  ,                                       !- Surface Rendering Name
  {d112ab52-7c79-4bbd-b5bd-a7abdfcbe7bd}; !- Layer 1  

