
OS:Version,
  {c78bffbb-9010-4633-ad97-7fb995ed1b8b}, ! Handle
  0.9.3;                                  ! Version Identifier

OS:Material,
  {2da63eb9-5d3e-4038-8d58-353cf3cbfd17}, ! Handle
  1/2IN Gypsum Bottom,                    ! Name
  Smooth,                                 ! Roughness
  0.01271,                                ! Thickness {m}
  0.16,                                   ! Conductivity {W/m-K}
  784.9,                                  ! Density {kg/m3}
  830,                                    ! Specific Heat {J/kg-K}
  0.9,                                    ! Thermal Absorptance
  0.92,                                   ! Solar Absorptance
  0.92;                                   ! Visible Absorptance

OS:Construction,
  {40173e56-f658-4cff-b84a-f2ae82fa2a3d}, ! Handle
  AEDG SHC Nonres 5B Attic Floor,         ! Name
  ,                                       ! Surface Rendering Name
  {bae69a37-e73a-4598-89b9-ee7453b5fa28}, ! Layer 1
  {ee6ab49f-dfa8-4162-9485-5ea920597dc3}, ! Layer 2
  {2da63eb9-5d3e-4038-8d58-353cf3cbfd17}; ! Layer 3

OS:Material,
  {bae69a37-e73a-4598-89b9-ee7453b5fa28}, ! Handle
  1/2IN Gypsum Top,                       ! Name
  Smooth,                                 ! Roughness
  0.01271,                                ! Thickness {m}
  0.16,                                   ! Conductivity {W/m-K}
  784.9,                                  ! Density {kg/m3}
  830,                                    ! Specific Heat {J/kg-K}
  0.9,                                    ! Thermal Absorptance
  0.92,                                   ! Solar Absorptance
  0.92;                                   ! Visible Absorptance

OS:Material,
  {ee6ab49f-dfa8-4162-9485-5ea920597dc3}, ! Handle
  AtticFloor Insulation [8],              ! Name
  MediumRough,                            ! Roughness
  0.253254,                               ! Thickness {m}
  0.049,                                  ! Conductivity {W/m-K}
  265,                                    ! Density {kg/m3}
  836.8,                                  ! Specific Heat {J/kg-K}
  0.9,                                    ! Thermal Absorptance
  0.7,                                    ! Solar Absorptance
  0.7;                                    ! Visible Absorptance

OS:ComponentCost:LineItem,
  {545bd202-85c2-470d-9878-98abe783ec43}, ! Handle
  AEDG SHC Nonres 5B Attic Floor,         ! Name
  ,                                       ! Type
  Construction,                           ! Line Item Type
  AEDG SHC Nonres 5B Attic Floor,         ! Item Name
  ,                                       ! Object End Use Key
  ,                                       ! Quantity {dimensionless}
  0,                                      ! Material Cost {$}
  CostPerArea;                            ! Material Cost Units

