
OS:Version,
  {b5385a87-0086-4f40-a89d-df8dfdf37a47}, ! Handle
  0.9.3;                                  ! Version Identifier

OS:Construction,
  {eca3e82f-8dab-426e-9946-b9cab87af0e0}, ! Handle
  189.1-2009 Res 6B Attic Floor,          ! Name
  ,                                       ! Surface Rendering Name
  {afcc597c-0235-49eb-bb34-c37f17a0b13e}, ! Layer 1
  {03df93cf-52e8-4116-b123-29cdff490981}, ! Layer 2
  {2d7e47e3-fce4-4a80-835c-722ea2dcc957}; ! Layer 3

OS:Material,
  {afcc597c-0235-49eb-bb34-c37f17a0b13e}, ! Handle
  1/2IN Gypsum Top,                       ! Name
  Smooth,                                 ! Roughness
  0.01271,                                ! Thickness {m}
  0.16,                                   ! Conductivity {W/m-K}
  784.9,                                  ! Density {kg/m3}
  830,                                    ! Specific Heat {J/kg-K}
  0.9,                                    ! Thermal Absorptance
  0.92,                                   ! Solar Absorptance
  0.92;                                   ! Visible Absorptance

OS:Material,
  {03df93cf-52e8-4116-b123-29cdff490981}, ! Handle
  AtticFloor Insulation [4],              ! Name
  MediumRough,                            ! Roughness
  0.392234,                               ! Thickness {m}
  0.049,                                  ! Conductivity {W/m-K}
  265,                                    ! Density {kg/m3}
  836.8,                                  ! Specific Heat {J/kg-K}
  0.9,                                    ! Thermal Absorptance
  0.7,                                    ! Solar Absorptance
  0.7;                                    ! Visible Absorptance

OS:Material,
  {2d7e47e3-fce4-4a80-835c-722ea2dcc957}, ! Handle
  1/2IN Gypsum Bottom,                    ! Name
  Smooth,                                 ! Roughness
  0.01271,                                ! Thickness {m}
  0.16,                                   ! Conductivity {W/m-K}
  784.9,                                  ! Density {kg/m3}
  830,                                    ! Specific Heat {J/kg-K}
  0.9,                                    ! Thermal Absorptance
  0.92,                                   ! Solar Absorptance
  0.92;                                   ! Visible Absorptance

OS:ComponentCost:LineItem,
  {8c4aa5cc-d1c1-41f0-ac86-c18a86148f15}, ! Handle
  189.1-2009 Res 6B Attic Floor,          ! Name
  ,                                       ! Type
  Construction,                           ! Line Item Type
  189.1-2009 Res 6B Attic Floor,          ! Item Name
  ,                                       ! Object End Use Key
  ,                                       ! Quantity {dimensionless}
  37.058,                                 ! Material Cost {$}
  CostPerArea;                            ! Material Cost Units

