
OS:Version,
  {c67d26cf-43dd-4be2-b46b-d1a47f432442}, ! Handle
  0.9.3;                                  ! Version Identifier

OS:Construction,
  {7d7d43bf-5d91-4152-a7fe-d5fd9a33d373}, ! Handle
  189.1-2009 Res 6B Attic Floor,          ! Name
  ,                                       ! Surface Rendering Name
  {238b0141-db30-4145-8dcb-cc8cac3c87e2}, ! Layer 1
  {7dd4f19c-18a8-43d4-a142-3debaafbd9cc}, ! Layer 2
  {5d0db63d-4e75-40c0-a57e-20fa94cee0b6}; ! Layer 3

OS:Material,
  {238b0141-db30-4145-8dcb-cc8cac3c87e2}, ! Handle
  1/2IN Gypsum Top,                       ! Name
  Smooth,                                 ! Roughness
  0.01271,                                ! Thickness {m}
  0.16,                                   ! Conductivity {W/m-K}
  784.9,                                  ! Density {kg/m3}
  830,                                    ! Specific Heat {J/kg-K}
  0.9,                                    ! Thermal Absorptance
  0.92,                                   ! Solar Absorptance
  0.92;                                   ! Visible Absorptance

OS:Material,
  {7dd4f19c-18a8-43d4-a142-3debaafbd9cc}, ! Handle
  AtticFloor Insulation [4],              ! Name
  MediumRough,                            ! Roughness
  0.392234,                               ! Thickness {m}
  0.049,                                  ! Conductivity {W/m-K}
  265,                                    ! Density {kg/m3}
  836.8,                                  ! Specific Heat {J/kg-K}
  0.9,                                    ! Thermal Absorptance
  0.7,                                    ! Solar Absorptance
  0.7;                                    ! Visible Absorptance

OS:Material,
  {5d0db63d-4e75-40c0-a57e-20fa94cee0b6}, ! Handle
  1/2IN Gypsum Bottom,                    ! Name
  Smooth,                                 ! Roughness
  0.01271,                                ! Thickness {m}
  0.16,                                   ! Conductivity {W/m-K}
  784.9,                                  ! Density {kg/m3}
  830,                                    ! Specific Heat {J/kg-K}
  0.9,                                    ! Thermal Absorptance
  0.92,                                   ! Solar Absorptance
  0.92;                                   ! Visible Absorptance

OS:ComponentCost:LineItem,
  {f58ace83-78d7-4735-bd26-45e404fdedeb}, ! Handle
  189.1-2009 Res 6B Attic Floor,          ! Name
  ,                                       ! Type
  Construction,                           ! Line Item Type
  189.1-2009 Res 6B Attic Floor,          ! Item Name
  ,                                       ! Object End Use Key
  ,                                       ! Quantity {dimensionless}
  37.058,                                 ! Material Cost {$}
  CostPerArea;                            ! Material Cost Units

OS:ComponentData,
  {30ced8bc-e506-4371-a695-a25bb2f02376}, ! Handle
  Component Data 1,                       ! Name
  {a3f42eb1-c59c-42f7-90b7-ceb43c55a184}, ! UUID
  {39b5cb15-d003-423d-b8ed-b7a01ae05256}, ! Version UUID
  1363980979,                             ! Creation Timestamp
  1363980979,                             ! Version Timestamp
  {7d7d43bf-5d91-4152-a7fe-d5fd9a33d373}, ! Name of Object 1
  {238b0141-db30-4145-8dcb-cc8cac3c87e2}, ! Name of Object 2
  {7dd4f19c-18a8-43d4-a142-3debaafbd9cc}, ! Name of Object 3
  {5d0db63d-4e75-40c0-a57e-20fa94cee0b6}, ! Name of Object 4
  {f58ace83-78d7-4735-bd26-45e404fdedeb}; ! Name of Object 5

