
OS:Version,
  {7ada2b2d-373f-46cd-91d3-1d34f26a1930}, ! Handle
  0.9.3;                                  ! Version Identifier

OS:Construction,
  {c5efb54c-5de3-404b-bbc0-eb71fffa14e0}, ! Handle
  189.1-2009 Res 5B Window Metal framing curtainwall-storefront, ! Name
  ,                                       ! Surface Rendering Name
  {f6f65e95-aec7-454b-b1f3-facd2c6013f0}; ! Layer 1

OS:WindowMaterial:Glazing,
  {f6f65e95-aec7-454b-b1f3-facd2c6013f0}, ! Handle
  Theoretical Glass [214],                ! Name
  SpectralAverage,                        ! Optical Data Type
  ,                                       ! Window Glass Spectral Data Set Name
  0.003,                                  ! Thickness {m}
  0.379437,                               ! Solar Transmittance at Normal Incidence
  0.570563,                               ! Front Side Solar Reflectance at Normal Incidence
  0.570563,                               ! Back Side Solar Reflectance at Normal Incidence
  0.507883,                               ! Visible Transmittance at Normal Incidence
  0.442117,                               ! Front Side Visible Reflectance at Normal Incidence
  0.442117,                               ! Back Side Visible Reflectance at Normal Incidence
  0,                                      ! Infrared Transmittance at Normal Incidence
  0.9,                                    ! Front Side Infrared Hemispherical Emissivity
  0.9,                                    ! Back Side Infrared Hemispherical Emissivity
  0.00893994;                             ! Conductivity {W/m-K}

OS:ComponentCost:LineItem,
  {520bc519-1061-4734-80bb-efc4b475e670}, ! Handle
  189.1-2009 Res 5B Window Metal framing curtainwall-storefront, ! Name
  ,                                       ! Type
  Construction,                           ! Line Item Type
  189.1-2009 Res 5B Window Metal framing curtainwall-storefront, ! Item Name
  ,                                       ! Object End Use Key
  ,                                       ! Quantity {dimensionless}
  512.02,                                 ! Material Cost {$}
  CostPerArea;                            ! Material Cost Units

