
OS:Version,
  {9850800d-5b6f-467b-8c0a-f35f80cc3423}, !- Handle
  1.1.0;                                  !- Version Identifier

OS:Construction,
  {e36d33f7-f898-4e3c-b346-e57c051443ba}, !- Handle
  Sgl Ref-A-H Clr 6mm,                    !- Name
  ,                                       !- Surface Rendering Name
  {b3e8ffca-0604-4421-8e9b-0488b126c29c}; !- Layer 1

OS:WindowMaterial:Glazing,
  {b3e8ffca-0604-4421-8e9b-0488b126c29c}, !- Handle
  REF A CLEAR HI 6MM,                     !- Name
  SpectralAverage,                        !- Optical Data Type
  ,                                       !- Window Glass Spectral Data Set Name
  0.006,                                  !- Thickness {m}
  0.159,                                  !- Solar Transmittance at Normal Incidence
  0.22,                                   !- Front Side Solar Reflectance at Normal Incidence
  0.37,                                   !- Back Side Solar Reflectance at Normal Incidence
  0.2,                                    !- Visible Transmittance at Normal Incidence
  0.25,                                   !- Front Side Visible Reflectance at Normal Incidence
  0.32,                                   !- Back Side Visible Reflectance at Normal Incidence
  0,                                      !- Infrared Transmittance at Normal Incidence
  0.84,                                   !- Front Side Infrared Hemispherical Emissivity
  0.57,                                   !- Back Side Infrared Hemispherical Emissivity
  0.9;                                    !- Conductivity {W/m-K}

