
OS:Version,
  {f1e3b215-ca2e-4aa6-ab8f-77108d2bd670}, ! Handle
  0.9.3;                                  ! Version Identifier

OS:Material:NoMass,
  {8f8620c0-b654-4e23-91fc-693d837b39f0}, ! Handle
  MAT-SHEATH,                             ! Name
  Rough,                                  ! Roughness
  0.36256,                                ! Thermal Resistance {m2-K/W}
  0.9,                                    ! Thermal Absorptance
  0.7,                                    ! Solar Absorptance
  0.7;                                    ! Visible Absorptance

OS:ComponentCost:LineItem,
  {b77b8040-7afc-437e-a242-19677617ba57}, ! Handle
  90.1-1999 Nonres B2 Ext Wall Steel-Framed, ! Name
  ,                                       ! Type
  Construction,                           ! Line Item Type
  90.1-1999 Nonres B2 Ext Wall Steel-Framed, ! Item Name
  ,                                       ! Object End Use Key
  ,                                       ! Quantity {dimensionless}
  87.08,                                  ! Material Cost {$}
  CostPerArea;                            ! Material Cost Units

OS:Construction,
  {8bfe69f0-8834-4d90-bb4a-caac389382df}, ! Handle
  90.1-1999 Nonres B2 Ext Wall Steel-Framed, ! Name
  ,                                       ! Surface Rendering Name
  {8f8620c0-b654-4e23-91fc-693d837b39f0}, ! Layer 1
  {59e79c62-4eda-4707-9e25-6c0ef8707394}, ! Layer 2
  {c9984954-9639-4120-b54b-2757b691a72f}; ! Layer 3

OS:Material,
  {59e79c62-4eda-4707-9e25-6c0ef8707394}, ! Handle
  Wall Insulation [1],                    ! Name
  MediumRough,                            ! Roughness
  0.0373223,                              ! Thickness {m}
  0.045,                                  ! Conductivity {W/m-K}
  265,                                    ! Density {kg/m3}
  836.8,                                  ! Specific Heat {J/kg-K}
  0.9,                                    ! Thermal Absorptance
  0.7,                                    ! Solar Absorptance
  0.7;                                    ! Visible Absorptance

OS:Material,
  {c9984954-9639-4120-b54b-2757b691a72f}, ! Handle
  1/2IN Gypsum,                           ! Name
  Smooth,                                 ! Roughness
  0.01271,                                ! Thickness {m}
  0.16,                                   ! Conductivity {W/m-K}
  784.9,                                  ! Density {kg/m3}
  830,                                    ! Specific Heat {J/kg-K}
  0.9,                                    ! Thermal Absorptance
  0.92,                                   ! Solar Absorptance
  0.92;                                   ! Visible Absorptance

