
OS:Version,
  {77958b04-b468-4fba-8f06-5235fc6fe211}, ! Handle
  0.9.3;                                  ! Version Identifier

OS:Construction,
  {1a37c6c6-7c17-4626-af3e-e44b8ae420ce}, ! Handle
  90.1-1999 Nonres B2 Ext Wall Steel-Framed, ! Name
  ,                                       ! Surface Rendering Name
  {a36619a0-7a67-4c15-b5eb-7879fd00399e}, ! Layer 1
  {f2a94eba-453e-418a-b4ae-eb8a0455b9da}, ! Layer 2
  {61ebcdc3-5af8-4b1a-830c-7734a601be52}; ! Layer 3

OS:Material:NoMass,
  {a36619a0-7a67-4c15-b5eb-7879fd00399e}, ! Handle
  MAT-SHEATH,                             ! Name
  Rough,                                  ! Roughness
  0.36256,                                ! Thermal Resistance {m2-K/W}
  0.9,                                    ! Thermal Absorptance
  0.7,                                    ! Solar Absorptance
  0.7;                                    ! Visible Absorptance

OS:Material,
  {f2a94eba-453e-418a-b4ae-eb8a0455b9da}, ! Handle
  Wall Insulation [1],                    ! Name
  MediumRough,                            ! Roughness
  0.0373223,                              ! Thickness {m}
  0.045,                                  ! Conductivity {W/m-K}
  265,                                    ! Density {kg/m3}
  836.8,                                  ! Specific Heat {J/kg-K}
  0.9,                                    ! Thermal Absorptance
  0.7,                                    ! Solar Absorptance
  0.7;                                    ! Visible Absorptance

OS:Material,
  {61ebcdc3-5af8-4b1a-830c-7734a601be52}, ! Handle
  1/2IN Gypsum,                           ! Name
  Smooth,                                 ! Roughness
  0.01271,                                ! Thickness {m}
  0.16,                                   ! Conductivity {W/m-K}
  784.9,                                  ! Density {kg/m3}
  830,                                    ! Specific Heat {J/kg-K}
  0.9,                                    ! Thermal Absorptance
  0.92,                                   ! Solar Absorptance
  0.92;                                   ! Visible Absorptance

OS:ComponentCost:LineItem,
  {6db4f752-66b3-48ce-8e07-bbc29aa7d15b}, ! Handle
  90.1-1999 Nonres B2 Ext Wall Steel-Framed, ! Name
  ,                                       ! Type
  Construction,                           ! Line Item Type
  90.1-1999 Nonres B2 Ext Wall Steel-Framed, ! Item Name
  ,                                       ! Object End Use Key
  ,                                       ! Quantity {dimensionless}
  87.08,                                  ! Material Cost {$}
  CostPerArea;                            ! Material Cost Units

OS:ComponentData,
  {0b6adb1a-bf0a-4473-92ef-70e8b65e20ae}, ! Handle
  Component Data 1,                       ! Name
  {bd099bb1-fb97-4a3e-aa19-1628a81155ce}, ! UUID
  {dbac688f-a9cd-4b65-bcd1-0c3f3788057e}, ! Version UUID
  1363981042,                             ! Creation Timestamp
  1363981042,                             ! Version Timestamp
  {1a37c6c6-7c17-4626-af3e-e44b8ae420ce}, ! Name of Object 1
  {a36619a0-7a67-4c15-b5eb-7879fd00399e}, ! Name of Object 2
  {f2a94eba-453e-418a-b4ae-eb8a0455b9da}, ! Name of Object 3
  {61ebcdc3-5af8-4b1a-830c-7734a601be52}, ! Name of Object 4
  {6db4f752-66b3-48ce-8e07-bbc29aa7d15b}; ! Name of Object 5

