
OS:Version,
  {71bc2b17-2b04-431d-be51-aec4704d9dcb}, ! Handle
  0.9.3;                                  ! Version Identifier

OS:Construction,
  {8c426b60-dd74-418a-9478-88cc3a511be6}, ! Handle
  AEDG SHC Nonres 6B Skylight Glass Skylight with Curb, ! Name
  ,                                       ! Surface Rendering Name
  {e89e2585-7c47-4d1c-836a-cac25d273cc6}; ! Layer 1

OS:WindowMaterial:Glazing,
  {e89e2585-7c47-4d1c-836a-cac25d273cc6}, ! Handle
  Theoretical Glass [242],                ! Name
  SpectralAverage,                        ! Optical Data Type
  ,                                       ! Window Glass Spectral Data Set Name
  0.003,                                  ! Thickness {m}
  0.381632,                               ! Solar Transmittance at Normal Incidence
  0.568368,                               ! Front Side Solar Reflectance at Normal Incidence
  0.568368,                               ! Back Side Solar Reflectance at Normal Incidence
  0.549983,                               ! Visible Transmittance at Normal Incidence
  0.400017,                               ! Front Side Visible Reflectance at Normal Incidence
  0.400017,                               ! Back Side Visible Reflectance at Normal Incidence
  0,                                      ! Infrared Transmittance at Normal Incidence
  0.9,                                    ! Front Side Infrared Hemispherical Emissivity
  0.9,                                    ! Back Side Infrared Hemispherical Emissivity
  0.0230964;                              ! Conductivity {W/m-K}

OS:ComponentCost:LineItem,
  {176965cf-84f5-4155-881a-e3d3bdce2e5e}, ! Handle
  AEDG SHC Nonres 6B Skylight Glass Skylight with Curb, ! Name
  ,                                       ! Type
  Construction,                           ! Line Item Type
  AEDG SHC Nonres 6B Skylight Glass Skylight with Curb, ! Item Name
  ,                                       ! Object End Use Key
  ,                                       ! Quantity {dimensionless}
  0,                                      ! Material Cost {$}
  CostPerArea;                            ! Material Cost Units

