
OS:Version,
  {af0d0565-dd00-492b-8300-0c8f2bd95492}, ! Handle
  0.9.3;                                  ! Version Identifier

OS:Material,
  {410fa546-3d29-4ebe-bb29-8959eeb520a1}, ! Handle
  Roof Insulation,                        ! Name
  MediumRough,                            ! Roughness
  0.124958,                               ! Thickness {m}
  0.049,                                  ! Conductivity {W/m-K}
  265,                                    ! Density {kg/m3}
  836.8,                                  ! Specific Heat {J/kg-K}
  0.9,                                    ! Thermal Absorptance
  0.7,                                    ! Solar Absorptance
  0.7;                                    ! Visible Absorptance

OS:ComponentCost:LineItem,
  {a7e273cb-43af-4af4-b979-c22abaf4ad56}, ! Handle
  90.1-2004 Nonres 4B Roof IEAD,          ! Name
  ,                                       ! Type
  Construction,                           ! Line Item Type
  90.1-2004 Nonres 4B Roof IEAD,          ! Item Name
  ,                                       ! Object End Use Key
  ,                                       ! Quantity {dimensionless}
  49.208,                                 ! Material Cost {$}
  CostPerArea;                            ! Material Cost Units

OS:Material,
  {414aeb66-d277-4b57-9acb-0ce2554e13ab}, ! Handle
  Roof Membrane,                          ! Name
  VeryRough,                              ! Roughness
  0.0095,                                 ! Thickness {m}
  0.16,                                   ! Conductivity {W/m-K}
  1121.29,                                ! Density {kg/m3}
  1460,                                   ! Specific Heat {J/kg-K}
  0.9,                                    ! Thermal Absorptance
  0.7,                                    ! Solar Absorptance
  0.7;                                    ! Visible Absorptance

OS:Material,
  {518ac66f-bcca-43a6-89d6-e61d35990824}, ! Handle
  Metal Decking,                          ! Name
  MediumSmooth,                           ! Roughness
  0.001524,                               ! Thickness {m}
  45.006,                                 ! Conductivity {W/m-K}
  7680,                                   ! Density {kg/m3}
  418.4,                                  ! Specific Heat {J/kg-K}
  0.9,                                    ! Thermal Absorptance
  0.7,                                    ! Solar Absorptance
  0.3;                                    ! Visible Absorptance

OS:Construction,
  {35939727-85a2-4d21-886c-19e54b843187}, ! Handle
  90.1-2004 Nonres 4B Roof IEAD,          ! Name
  ,                                       ! Surface Rendering Name
  {414aeb66-d277-4b57-9acb-0ce2554e13ab}, ! Layer 1
  {410fa546-3d29-4ebe-bb29-8959eeb520a1}, ! Layer 2
  {518ac66f-bcca-43a6-89d6-e61d35990824}; ! Layer 3

