
OS:Version,
  {2917c7eb-75e1-4e0e-bf31-35eda9aaeef2}, ! Handle
  0.9.3;                                  ! Version Identifier

OS:Construction,
  {e8cc05da-0d9f-4fbb-9b8e-a2f61c9b7185}, ! Handle
  90.1 Windows Window Fixed 3411 Brk-Clr-Ins-Clr-Ins-Clr, ! Name
  ,                                       ! Surface Rendering Name
  {a7fe30d0-b987-4906-8a1e-516f94567bab}; ! Layer 1

OS:WindowMaterial:Glazing,
  {a7fe30d0-b987-4906-8a1e-516f94567bab}, ! Handle
  Theoretical Glass [284],                ! Name
  SpectralAverage,                        ! Optical Data Type
  ,                                       ! Window Glass Spectral Data Set Name
  0.003,                                  ! Thickness {m}
  0.584438,                               ! Solar Transmittance at Normal Incidence
  0.365562,                               ! Front Side Solar Reflectance at Normal Incidence
  0.365562,                               ! Back Side Solar Reflectance at Normal Incidence
  0.639644,                               ! Visible Transmittance at Normal Incidence
  0.310356,                               ! Front Side Visible Reflectance at Normal Incidence
  0.310356,                               ! Back Side Visible Reflectance at Normal Incidence
  0,                                      ! Infrared Transmittance at Normal Incidence
  0.9,                                    ! Front Side Infrared Hemispherical Emissivity
  0.9,                                    ! Back Side Infrared Hemispherical Emissivity
  0.0116215;                              ! Conductivity {W/m-K}

OS:ComponentCost:LineItem,
  {51f59e17-b1db-48cf-af8a-ab3f06986dc1}, ! Handle
  90.1 Windows Window Fixed 3411 Brk-Clr-Ins-Clr-Ins-Clr, ! Name
  ,                                       ! Type
  Construction,                           ! Line Item Type
  90.1 Windows Window Fixed 3411 Brk-Clr-Ins-Clr-Ins-Clr, ! Item Name
  ,                                       ! Object End Use Key
  ,                                       ! Quantity {dimensionless}
  0,                                      ! Material Cost {$}
  CostPerArea;                            ! Material Cost Units

OS:ComponentData,
  {23ed524f-7901-4196-a3f7-37a89c2051ac}, ! Handle
  Component Data 1,                       ! Name
  {d71d74c0-8e61-42e7-bdea-6514f1634feb}, ! UUID
  {4529191c-8636-4407-a3f9-c9b4e71e72c1}, ! Version UUID
  1363981003,                             ! Creation Timestamp
  1363981003,                             ! Version Timestamp
  {e8cc05da-0d9f-4fbb-9b8e-a2f61c9b7185}, ! Name of Object 1
  {a7fe30d0-b987-4906-8a1e-516f94567bab}, ! Name of Object 2
  {51f59e17-b1db-48cf-af8a-ab3f06986dc1}; ! Name of Object 3

