
OS:Version,
  {75136d36-a368-4928-96f0-68f53b38e0da}, ! Handle
  0.9.3;                                  ! Version Identifier

OS:ComponentCost:LineItem,
  {efe7c47e-8537-438f-bfd4-0c396d529699}, ! Handle
  90.1 Windows Window Fixed 3411 Brk-Clr-Ins-Clr-Ins-Clr, ! Name
  ,                                       ! Type
  Construction,                           ! Line Item Type
  90.1 Windows Window Fixed 3411 Brk-Clr-Ins-Clr-Ins-Clr, ! Item Name
  ,                                       ! Object End Use Key
  ,                                       ! Quantity {dimensionless}
  0,                                      ! Material Cost {$}
  CostPerArea;                            ! Material Cost Units

OS:Construction,
  {3e196bcb-4ea2-443c-ac17-3b08d5b1a587}, ! Handle
  90.1 Windows Window Fixed 3411 Brk-Clr-Ins-Clr-Ins-Clr, ! Name
  ,                                       ! Surface Rendering Name
  {b3273db2-00f8-411c-bd3c-0ed15cc3c77a}; ! Layer 1

OS:WindowMaterial:Glazing,
  {b3273db2-00f8-411c-bd3c-0ed15cc3c77a}, ! Handle
  Theoretical Glass [284],                ! Name
  SpectralAverage,                        ! Optical Data Type
  ,                                       ! Window Glass Spectral Data Set Name
  0.003,                                  ! Thickness {m}
  0.584438,                               ! Solar Transmittance at Normal Incidence
  0.365562,                               ! Front Side Solar Reflectance at Normal Incidence
  0.365562,                               ! Back Side Solar Reflectance at Normal Incidence
  0.639644,                               ! Visible Transmittance at Normal Incidence
  0.310356,                               ! Front Side Visible Reflectance at Normal Incidence
  0.310356,                               ! Back Side Visible Reflectance at Normal Incidence
  0,                                      ! Infrared Transmittance at Normal Incidence
  0.9,                                    ! Front Side Infrared Hemispherical Emissivity
  0.9,                                    ! Back Side Infrared Hemispherical Emissivity
  0.0116215;                              ! Conductivity {W/m-K}

