
OS:Version,
  {1b3d315a-1a9d-4059-9163-de5a20d58bc7}, ! Handle
  0.9.3;                                  ! Version Identifier

OS:Construction,
  {931be964-aa18-41c2-9d03-21b04ce44dff}, ! Handle
  AEDG K12 Nonres 7A Roof IEAD,           ! Name
  ,                                       ! Surface Rendering Name
  {2dd718d5-6d53-427e-b00c-bc395d2f0f10}, ! Layer 1
  {da3fc691-1ed2-460b-a8f8-70cccde2baa6}, ! Layer 2
  {a68fdc0d-41b3-41e1-bdb3-6ca4b8b31dce}; ! Layer 3

OS:Material,
  {2dd718d5-6d53-427e-b00c-bc395d2f0f10}, ! Handle
  Roof Membrane,                          ! Name
  VeryRough,                              ! Roughness
  0.0095,                                 ! Thickness {m}
  0.16,                                   ! Conductivity {W/m-K}
  1121.29,                                ! Density {kg/m3}
  1460,                                   ! Specific Heat {J/kg-K}
  0.9,                                    ! Thermal Absorptance
  0.7,                                    ! Solar Absorptance
  0.7;                                    ! Visible Absorptance

OS:Material,
  {da3fc691-1ed2-460b-a8f8-70cccde2baa6}, ! Handle
  Roof Insulation,                        ! Name
  MediumRough,                            ! Roughness
  0.124958,                               ! Thickness {m}
  0.049,                                  ! Conductivity {W/m-K}
  265,                                    ! Density {kg/m3}
  836.8,                                  ! Specific Heat {J/kg-K}
  0.9,                                    ! Thermal Absorptance
  0.7,                                    ! Solar Absorptance
  0.7;                                    ! Visible Absorptance

OS:Material,
  {a68fdc0d-41b3-41e1-bdb3-6ca4b8b31dce}, ! Handle
  Metal Decking,                          ! Name
  MediumSmooth,                           ! Roughness
  0.001524,                               ! Thickness {m}
  45.006,                                 ! Conductivity {W/m-K}
  7680,                                   ! Density {kg/m3}
  418.4,                                  ! Specific Heat {J/kg-K}
  0.9,                                    ! Thermal Absorptance
  0.7,                                    ! Solar Absorptance
  0.3;                                    ! Visible Absorptance

OS:ComponentCost:LineItem,
  {3c885b46-4db4-4823-96eb-67a0cf6bd78b}, ! Handle
  AEDG K12 Nonres 7A Roof IEAD,           ! Name
  ,                                       ! Type
  Construction,                           ! Line Item Type
  AEDG K12 Nonres 7A Roof IEAD,           ! Item Name
  ,                                       ! Object End Use Key
  ,                                       ! Quantity {dimensionless}
  98.49,                                  ! Material Cost {$}
  CostPerArea;                            ! Material Cost Units

OS:ComponentData,
  {6ed485cd-3e0b-4277-aab0-b68d7cdf0d71}, ! Handle
  Component Data 1,                       ! Name
  {ef17851c-7331-4af7-82ac-dfbd79395293}, ! UUID
  {4cda07ee-1a4c-4be0-97ea-053dc5fd55f7}, ! Version UUID
  1363981901,                             ! Creation Timestamp
  1363981901,                             ! Version Timestamp
  {931be964-aa18-41c2-9d03-21b04ce44dff}, ! Name of Object 1
  {2dd718d5-6d53-427e-b00c-bc395d2f0f10}, ! Name of Object 2
  {da3fc691-1ed2-460b-a8f8-70cccde2baa6}, ! Name of Object 3
  {a68fdc0d-41b3-41e1-bdb3-6ca4b8b31dce}, ! Name of Object 4
  {3c885b46-4db4-4823-96eb-67a0cf6bd78b}; ! Name of Object 5

