
OS:Version,
  {4b60ef5c-9583-46d3-ad49-ee3ea808c591}, ! Handle
  0.9.3;                                  ! Version Identifier

OS:Material,
  {33578287-cdf2-42e7-aa7c-b021316dae79}, ! Handle
  Roof Membrane,                          ! Name
  VeryRough,                              ! Roughness
  0.0095,                                 ! Thickness {m}
  0.16,                                   ! Conductivity {W/m-K}
  1121.29,                                ! Density {kg/m3}
  1460,                                   ! Specific Heat {J/kg-K}
  0.9,                                    ! Thermal Absorptance
  0.7,                                    ! Solar Absorptance
  0.7;                                    ! Visible Absorptance

OS:Construction,
  {ba6f804c-00e4-4539-8190-3c930111dcae}, ! Handle
  AEDG K12 Nonres 7A Roof IEAD,           ! Name
  ,                                       ! Surface Rendering Name
  {33578287-cdf2-42e7-aa7c-b021316dae79}, ! Layer 1
  {82bcccd0-6f1e-48bc-aeff-072a10ea9ac0}, ! Layer 2
  {aa094582-f22f-415a-aab1-c5b5c1ad3a68}; ! Layer 3

OS:Material,
  {82bcccd0-6f1e-48bc-aeff-072a10ea9ac0}, ! Handle
  Roof Insulation,                        ! Name
  MediumRough,                            ! Roughness
  0.124958,                               ! Thickness {m}
  0.049,                                  ! Conductivity {W/m-K}
  265,                                    ! Density {kg/m3}
  836.8,                                  ! Specific Heat {J/kg-K}
  0.9,                                    ! Thermal Absorptance
  0.7,                                    ! Solar Absorptance
  0.7;                                    ! Visible Absorptance

OS:Material,
  {aa094582-f22f-415a-aab1-c5b5c1ad3a68}, ! Handle
  Metal Decking,                          ! Name
  MediumSmooth,                           ! Roughness
  0.001524,                               ! Thickness {m}
  45.006,                                 ! Conductivity {W/m-K}
  7680,                                   ! Density {kg/m3}
  418.4,                                  ! Specific Heat {J/kg-K}
  0.9,                                    ! Thermal Absorptance
  0.7,                                    ! Solar Absorptance
  0.3;                                    ! Visible Absorptance

OS:ComponentCost:LineItem,
  {d62aeca4-1188-46e4-9ae0-d2bb90bbf07b}, ! Handle
  AEDG K12 Nonres 7A Roof IEAD,           ! Name
  ,                                       ! Type
  Construction,                           ! Line Item Type
  AEDG K12 Nonres 7A Roof IEAD,           ! Item Name
  ,                                       ! Object End Use Key
  ,                                       ! Quantity {dimensionless}
  98.49,                                  ! Material Cost {$}
  CostPerArea;                            ! Material Cost Units

