
OS:Version,
  {0a47beea-f008-4ee7-a82f-888f893cf091}, ! Handle
  0.9.3;                                  ! Version Identifier

OS:Material:NoMass,
  {62e67b46-0150-4d21-8556-518a30a87c6d}, ! Handle
  DoorMaterial,                           ! Name
  MediumRough,                            ! Roughness
  0.251589,                               ! Thermal Resistance {m2-K/W}
  0.9,                                    ! Thermal Absorptance
  0.7,                                    ! Solar Absorptance
  0.7;                                    ! Visible Absorptance

OS:Construction,
  {ee72b8d3-57ce-41a1-a9b9-9862b7564f7c}, ! Handle
  AEDG-SmOffice 7A Door Swinging,         ! Name
  ,                                       ! Surface Rendering Name
  {62e67b46-0150-4d21-8556-518a30a87c6d}; ! Layer 1

OS:ComponentCost:LineItem,
  {d6b677d2-c8b0-4b4a-8e2c-a9d2240667b5}, ! Handle
  AEDG-SmOffice 7A Door Swinging,         ! Name
  ,                                       ! Type
  Construction,                           ! Line Item Type
  AEDG-SmOffice 7A Door Swinging,         ! Item Name
  ,                                       ! Object End Use Key
  ,                                       ! Quantity {dimensionless}
  0,                                      ! Material Cost {$}
  CostPerArea;                            ! Material Cost Units

