
OS:Version,
  {e592a982-2ab4-46e1-915b-dbaa5750e6a0}, ! Handle
  0.9.3;                                  ! Version Identifier

OS:Material,
  {e91ef8ac-a5c7-4da1-9cd3-b8a85eafc1a9}, ! Handle
  Metal Roofing,                          ! Name
  MediumSmooth,                           ! Roughness
  0.001524,                               ! Thickness {m}
  45.006,                                 ! Conductivity {W/m-K}
  7680,                                   ! Density {kg/m3}
  418.4,                                  ! Specific Heat {J/kg-K}
  0.9,                                    ! Thermal Absorptance
  0.7,                                    ! Solar Absorptance
  0.3;                                    ! Visible Absorptance

OS:Material,
  {e9ecddf3-35c8-4c3d-9fbf-4144ee9d2d50}, ! Handle
  Roof Insulation [8],                    ! Name
  MediumRough,                            ! Roughness
  0.166908,                               ! Thickness {m}
  0.049,                                  ! Conductivity {W/m-K}
  265,                                    ! Density {kg/m3}
  836.8,                                  ! Specific Heat {J/kg-K}
  0.9,                                    ! Thermal Absorptance
  0.7,                                    ! Solar Absorptance
  0.7;                                    ! Visible Absorptance

OS:Construction,
  {4a853b6f-b568-48c8-a26d-c14085ba09a9}, ! Handle
  AEDG-SmOffice 7A Roof Metal Building,   ! Name
  ,                                       ! Surface Rendering Name
  {e91ef8ac-a5c7-4da1-9cd3-b8a85eafc1a9}, ! Layer 1
  {e9ecddf3-35c8-4c3d-9fbf-4144ee9d2d50}; ! Layer 2

OS:ComponentCost:LineItem,
  {977b2f07-933d-4119-b9ab-e7acf276dca3}, ! Handle
  AEDG-SmOffice 7A Roof Metal Building,   ! Name
  ,                                       ! Type
  Construction,                           ! Line Item Type
  AEDG-SmOffice 7A Roof Metal Building,   ! Item Name
  ,                                       ! Object End Use Key
  ,                                       ! Quantity {dimensionless}
  42.184,                                 ! Material Cost {$}
  CostPerArea;                            ! Material Cost Units

