
OS:Version,
  {5cac40a9-8949-4e96-8b1d-a0a34cc187b0}, ! Handle
  0.9.3;                                  ! Version Identifier

OS:Construction,
  {904445e7-6b1f-4660-8c6a-2bc2bed64ec0}, ! Handle
  AEDG-SmOffice 7A Roof Metal Building,   ! Name
  ,                                       ! Surface Rendering Name
  {4efcec5c-6209-4b27-965f-c5f9093cc61b}, ! Layer 1
  {9c78e69f-0beb-4ffb-9f78-b0cd544e145a}; ! Layer 2

OS:Material,
  {4efcec5c-6209-4b27-965f-c5f9093cc61b}, ! Handle
  Metal Roofing,                          ! Name
  MediumSmooth,                           ! Roughness
  0.001524,                               ! Thickness {m}
  45.006,                                 ! Conductivity {W/m-K}
  7680,                                   ! Density {kg/m3}
  418.4,                                  ! Specific Heat {J/kg-K}
  0.9,                                    ! Thermal Absorptance
  0.7,                                    ! Solar Absorptance
  0.3;                                    ! Visible Absorptance

OS:Material,
  {9c78e69f-0beb-4ffb-9f78-b0cd544e145a}, ! Handle
  Roof Insulation [8],                    ! Name
  MediumRough,                            ! Roughness
  0.166908,                               ! Thickness {m}
  0.049,                                  ! Conductivity {W/m-K}
  265,                                    ! Density {kg/m3}
  836.8,                                  ! Specific Heat {J/kg-K}
  0.9,                                    ! Thermal Absorptance
  0.7,                                    ! Solar Absorptance
  0.7;                                    ! Visible Absorptance

OS:ComponentCost:LineItem,
  {9b5433e8-53f5-4276-a69b-72733ef7b7d6}, ! Handle
  AEDG-SmOffice 7A Roof Metal Building,   ! Name
  ,                                       ! Type
  Construction,                           ! Line Item Type
  AEDG-SmOffice 7A Roof Metal Building,   ! Item Name
  ,                                       ! Object End Use Key
  ,                                       ! Quantity {dimensionless}
  42.184,                                 ! Material Cost {$}
  CostPerArea;                            ! Material Cost Units

OS:ComponentData,
  {8d064bcb-f7ed-4dd8-bc66-356147aefc65}, ! Handle
  Component Data 1,                       ! Name
  {53e997e0-e912-4a18-9070-88ee1419174d}, ! UUID
  {0ae98180-3d69-48a5-8308-d565b26b0f17}, ! Version UUID
  1363981962,                             ! Creation Timestamp
  1363981962,                             ! Version Timestamp
  {904445e7-6b1f-4660-8c6a-2bc2bed64ec0}, ! Name of Object 1
  {4efcec5c-6209-4b27-965f-c5f9093cc61b}, ! Name of Object 2
  {9c78e69f-0beb-4ffb-9f78-b0cd544e145a}, ! Name of Object 3
  {9b5433e8-53f5-4276-a69b-72733ef7b7d6}; ! Name of Object 4

