
OS:Version,
  {791c7af9-a1c8-4b06-9243-8211d02a8da6}, ! Handle
  0.9.3;                                  ! Version Identifier

OS:Construction,
  {d94e1161-601d-458d-bff4-9f41d1fd20c9}, ! Handle
  90.1-1999 Nonres B4 Window Fixed,       ! Name
  ,                                       ! Surface Rendering Name
  {2c278cee-ea28-42d2-ade7-5844bc75162a}; ! Layer 1

OS:WindowMaterial:Glazing,
  {2c278cee-ea28-42d2-ade7-5844bc75162a}, ! Handle
  Theoretical Glass [10],                 ! Name
  SpectralAverage,                        ! Optical Data Type
  ,                                       ! Window Glass Spectral Data Set Name
  0.003,                                  ! Thickness {m}
  0.455799,                               ! Solar Transmittance at Normal Incidence
  0.494201,                               ! Front Side Solar Reflectance at Normal Incidence
  0.494201,                               ! Back Side Solar Reflectance at Normal Incidence
  0.505402,                               ! Visible Transmittance at Normal Incidence
  0.444598,                               ! Front Side Visible Reflectance at Normal Incidence
  0.444598,                               ! Back Side Visible Reflectance at Normal Incidence
  0,                                      ! Infrared Transmittance at Normal Incidence
  0.999,                                  ! Front Side Infrared Hemispherical Emissivity
  0.999,                                  ! Back Side Infrared Hemispherical Emissivity
  3.36874;                                ! Conductivity {W/m-K}

OS:ComponentCost:LineItem,
  {97db526b-c59d-44fa-b1f7-3efda9845981}, ! Handle
  90.1-1999 Nonres B4 Window Fixed,       ! Name
  ,                                       ! Type
  Construction,                           ! Line Item Type
  90.1-1999 Nonres B4 Window Fixed,       ! Item Name
  ,                                       ! Object End Use Key
  ,                                       ! Quantity {dimensionless}
  455.638,                                ! Material Cost {$}
  CostPerArea;                            ! Material Cost Units

