
OS:Version,
  {d4934742-9a26-4532-a191-4bc5538665c6}, ! Handle
  0.9.3;                                  ! Version Identifier

OS:ComponentCost:LineItem,
  {96b6e4dc-83f1-42f2-8198-a4574eb3773a}, ! Handle
  90.1-1999 Res B8 Roof Metal Building,   ! Name
  ,                                       ! Type
  Construction,                           ! Line Item Type
  90.1-1999 Res B8 Roof Metal Building,   ! Item Name
  ,                                       ! Object End Use Key
  ,                                       ! Quantity {dimensionless}
  38.206,                                 ! Material Cost {$}
  CostPerArea;                            ! Material Cost Units

OS:Construction,
  {949a23da-03fa-490b-91f5-13e15912d51d}, ! Handle
  90.1-1999 Res B8 Roof Metal Building,   ! Name
  ,                                       ! Surface Rendering Name
  {1edf7cdb-6ab8-4b74-a9ed-2f48a2933f49}, ! Layer 1
  {86fee17d-2434-48e9-9cfd-c4ec63f28a56}; ! Layer 2

OS:Material,
  {1edf7cdb-6ab8-4b74-a9ed-2f48a2933f49}, ! Handle
  Metal Roofing,                          ! Name
  MediumSmooth,                           ! Roughness
  0.001524,                               ! Thickness {m}
  45.006,                                 ! Conductivity {W/m-K}
  7680,                                   ! Density {kg/m3}
  418.4,                                  ! Specific Heat {J/kg-K}
  0.9,                                    ! Thermal Absorptance
  0.7,                                    ! Solar Absorptance
  0.3;                                    ! Visible Absorptance

OS:Material,
  {86fee17d-2434-48e9-9cfd-c4ec63f28a56}, ! Handle
  Roof Insulation [1],                    ! Name
  MediumRough,                            ! Roughness
  0.123533,                               ! Thickness {m}
  0.049,                                  ! Conductivity {W/m-K}
  265,                                    ! Density {kg/m3}
  836.8,                                  ! Specific Heat {J/kg-K}
  0.9,                                    ! Thermal Absorptance
  0.7,                                    ! Solar Absorptance
  0.7;                                    ! Visible Absorptance

