
OS:Version,
  {7f8bce48-f0d5-46be-b10f-be1dbd86b218}, ! Handle
  0.9.3;                                  ! Version Identifier

OS:Construction,
  {3705bbf6-4c37-49ce-a324-b93d87cc2c00}, ! Handle
  90.1 Windows Window Fixed 2623 Vnl-Hpt-Ins-ClrPye, ! Name
  ,                                       ! Surface Rendering Name
  {62678c10-884a-47df-b31a-1d9014798385}; ! Layer 1

OS:WindowMaterial:Glazing,
  {62678c10-884a-47df-b31a-1d9014798385}, ! Handle
  Theoretical Glass [448],                ! Name
  SpectralAverage,                        ! Optical Data Type
  ,                                       ! Window Glass Spectral Data Set Name
  0.003,                                  ! Thickness {m}
  0.306099,                               ! Solar Transmittance at Normal Incidence
  0.643901,                               ! Front Side Solar Reflectance at Normal Incidence
  0.643901,                               ! Back Side Solar Reflectance at Normal Incidence
  0.479911,                               ! Visible Transmittance at Normal Incidence
  0.470089,                               ! Front Side Visible Reflectance at Normal Incidence
  0.470089,                               ! Back Side Visible Reflectance at Normal Incidence
  0,                                      ! Infrared Transmittance at Normal Incidence
  0.9,                                    ! Front Side Infrared Hemispherical Emissivity
  0.9,                                    ! Back Side Infrared Hemispherical Emissivity
  0.0088199;                              ! Conductivity {W/m-K}

OS:ComponentCost:LineItem,
  {9830df1f-dd47-4adc-a060-121d9f895a9e}, ! Handle
  90.1 Windows Window Fixed 2623 Vnl-Hpt-Ins-ClrPye, ! Name
  ,                                       ! Type
  Construction,                           ! Line Item Type
  90.1 Windows Window Fixed 2623 Vnl-Hpt-Ins-ClrPye, ! Item Name
  ,                                       ! Object End Use Key
  ,                                       ! Quantity {dimensionless}
  0,                                      ! Material Cost {$}
  CostPerArea;                            ! Material Cost Units

