
OS:Version,
  {05b8114f-3304-4dc1-9379-eea009198a72}, ! Handle
  0.9.3;                                  ! Version Identifier

OS:Material,
  {ece6cee5-3950-45d6-ad83-58bf300e03f7}, ! Handle
  MAT-CC05 8 HW CONCRETE,                 ! Name
  Rough,                                  ! Roughness
  0.20321,                                ! Thickness {m}
  1.311,                                  ! Conductivity {W/m-K}
  2240,                                   ! Density {kg/m3}
  836.8,                                  ! Specific Heat {J/kg-K}
  0.9,                                    ! Thermal Absorptance
  0.7,                                    ! Solar Absorptance
  0.7;                                    ! Visible Absorptance

OS:Construction,
  {b0839fff-16d4-4cd6-bd9c-a7b74e0695aa}, ! Handle
  189.1-2009 Nonres 8A Ext Slab Unheated - 8in Slab without Carpet, ! Name
  ,                                       ! Surface Rendering Name
  {ece6cee5-3950-45d6-ad83-58bf300e03f7}; ! Layer 1

OS:ComponentCost:LineItem,
  {ce88e090-6039-4e4b-8ede-f21b195682c7}, ! Handle
  189.1-2009 Nonres 8A Ext Slab Unheated - 8in Slab without Carpet, ! Name
  ,                                       ! Type
  Construction,                           ! Line Item Type
  189.1-2009 Nonres 8A Ext Slab Unheated - 8in Slab without Carpet, ! Item Name
  ,                                       ! Object End Use Key
  ,                                       ! Quantity {dimensionless}
  45.52,                                  ! Material Cost {$}
  CostPerArea;                            ! Material Cost Units

