
OS:Version,
  {943d5948-500c-41ea-843a-c541d47378de}, ! Handle
  0.9.3;                                  ! Version Identifier

OS:ComponentCost:LineItem,
  {159a2421-7356-45e3-abd4-0c99236f909a}, ! Handle
  90.1-1999 Nonres B8 Window Fixed,       ! Name
  ,                                       ! Type
  Construction,                           ! Line Item Type
  90.1-1999 Nonres B8 Window Fixed,       ! Item Name
  ,                                       ! Object End Use Key
  ,                                       ! Quantity {dimensionless}
  473.607,                                ! Material Cost {$}
  CostPerArea;                            ! Material Cost Units

OS:Construction,
  {87c4278b-63bc-48fd-8692-ae1ec6fc9d24}, ! Handle
  90.1-1999 Nonres B8 Window Fixed,       ! Name
  ,                                       ! Surface Rendering Name
  {12a9c3c3-59a0-4c81-bbc0-ddec05f35819}; ! Layer 1

OS:WindowMaterial:Glazing,
  {12a9c3c3-59a0-4c81-bbc0-ddec05f35819}, ! Handle
  Theoretical Glass [20],                 ! Name
  SpectralAverage,                        ! Optical Data Type
  ,                                       ! Window Glass Spectral Data Set Name
  0.003,                                  ! Thickness {m}
  0.36668,                                ! Solar Transmittance at Normal Incidence
  0.58332,                                ! Front Side Solar Reflectance at Normal Incidence
  0.58332,                                ! Back Side Solar Reflectance at Normal Incidence
  0.399469,                               ! Visible Transmittance at Normal Incidence
  0.550531,                               ! Front Side Visible Reflectance at Normal Incidence
  0.550531,                               ! Back Side Visible Reflectance at Normal Incidence
  0,                                      ! Infrared Transmittance at Normal Incidence
  0.999,                                  ! Front Side Infrared Hemispherical Emissivity
  0.999,                                  ! Back Side Infrared Hemispherical Emissivity
  3.36874;                                ! Conductivity {W/m-K}

