
OS:Version,
  {539b0aff-b04a-4213-aa19-312084a74cf4}, ! Handle
  0.9.3;                                  ! Version Identifier

OS:Construction,
  {847ee1e8-504a-4f14-919a-c245f5159450}, ! Handle
  90.1-1999 Nonres B8 Window Fixed,       ! Name
  ,                                       ! Surface Rendering Name
  {f92a3391-6971-4ac2-a1d6-461749294af0}; ! Layer 1

OS:WindowMaterial:Glazing,
  {f92a3391-6971-4ac2-a1d6-461749294af0}, ! Handle
  Theoretical Glass [20],                 ! Name
  SpectralAverage,                        ! Optical Data Type
  ,                                       ! Window Glass Spectral Data Set Name
  0.003,                                  ! Thickness {m}
  0.36668,                                ! Solar Transmittance at Normal Incidence
  0.58332,                                ! Front Side Solar Reflectance at Normal Incidence
  0.58332,                                ! Back Side Solar Reflectance at Normal Incidence
  0.399469,                               ! Visible Transmittance at Normal Incidence
  0.550531,                               ! Front Side Visible Reflectance at Normal Incidence
  0.550531,                               ! Back Side Visible Reflectance at Normal Incidence
  0,                                      ! Infrared Transmittance at Normal Incidence
  0.999,                                  ! Front Side Infrared Hemispherical Emissivity
  0.999,                                  ! Back Side Infrared Hemispherical Emissivity
  3.36874;                                ! Conductivity {W/m-K}

OS:ComponentCost:LineItem,
  {ac02e0e7-54df-4ad4-9ff8-d74eeafb334a}, ! Handle
  90.1-1999 Nonres B8 Window Fixed,       ! Name
  ,                                       ! Type
  Construction,                           ! Line Item Type
  90.1-1999 Nonres B8 Window Fixed,       ! Item Name
  ,                                       ! Object End Use Key
  ,                                       ! Quantity {dimensionless}
  473.607,                                ! Material Cost {$}
  CostPerArea;                            ! Material Cost Units

OS:ComponentData,
  {e1858713-6dd8-4e86-9665-81a3467f2881}, ! Handle
  Component Data 1,                       ! Name
  {336924b0-30b2-4db0-9038-fb227b3202b2}, ! UUID
  {042d40a1-bb24-435e-b65f-517052f4df18}, ! Version UUID
  1363981075,                             ! Creation Timestamp
  1363981075,                             ! Version Timestamp
  {847ee1e8-504a-4f14-919a-c245f5159450}, ! Name of Object 1
  {f92a3391-6971-4ac2-a1d6-461749294af0}, ! Name of Object 2
  {ac02e0e7-54df-4ad4-9ff8-d74eeafb334a}; ! Name of Object 3

