
OS:Version,
  {965b965b-5ae1-4fda-af21-4c95b75c53e4}, ! Handle
  0.9.3;                                  ! Version Identifier

OS:Material,
  {150d8530-3f9f-490c-861e-b7292727e32a}, ! Handle
  1/2IN Gypsum,                           ! Name
  Smooth,                                 ! Roughness
  0.01271,                                ! Thickness {m}
  0.16,                                   ! Conductivity {W/m-K}
  784.9,                                  ! Density {kg/m3}
  830,                                    ! Specific Heat {J/kg-K}
  0.9,                                    ! Thermal Absorptance
  0.92,                                   ! Solar Absorptance
  0.92;                                   ! Visible Absorptance

OS:Material,
  {b2d9ce12-d193-41a5-a9af-820c5df69b13}, ! Handle
  Wood Shingles,                          ! Name
  VeryRough,                              ! Roughness
  0.0178,                                 ! Thickness {m}
  0.115,                                  ! Conductivity {W/m-K}
  513,                                    ! Density {kg/m3}
  1255,                                   ! Specific Heat {J/kg-K}
  0.9,                                    ! Thermal Absorptance
  0.78,                                   ! Solar Absorptance
  0.78;                                   ! Visible Absorptance

OS:Material,
  {d4ea9b19-56d4-4dcf-8405-892a98543847}, ! Handle
  1IN Wood Decking,                       ! Name
  MediumSmooth,                           ! Roughness
  0.0254,                                 ! Thickness {m}
  0.1211,                                 ! Conductivity {W/m-K}
  593,                                    ! Density {kg/m3}
  2510,                                   ! Specific Heat {J/kg-K}
  0.9,                                    ! Thermal Absorptance
  0.78,                                   ! Solar Absorptance
  0.78;                                   ! Visible Absorptance

OS:Construction,
  {b5a5e15f-e4cc-474b-9f10-fc5befe4cc60}, ! Handle
  90.1-2001 Nonres B3 Roof Attic and Other, ! Name
  ,                                       ! Surface Rendering Name
  {b2d9ce12-d193-41a5-a9af-820c5df69b13}, ! Layer 1
  {d4ea9b19-56d4-4dcf-8405-892a98543847}, ! Layer 2
  {3496006d-c8c4-4bc1-b318-d958cd5d2686}, ! Layer 3
  {150d8530-3f9f-490c-861e-b7292727e32a}; ! Layer 4

OS:Material,
  {3496006d-c8c4-4bc1-b318-d958cd5d2686}, ! Handle
  Roof Insulation [2],                    ! Name
  MediumRough,                            ! Roughness
  0.221604,                               ! Thickness {m}
  0.049,                                  ! Conductivity {W/m-K}
  265,                                    ! Density {kg/m3}
  836.8,                                  ! Specific Heat {J/kg-K}
  0.9,                                    ! Thermal Absorptance
  0.7,                                    ! Solar Absorptance
  0.7;                                    ! Visible Absorptance

OS:ComponentCost:LineItem,
  {9c7c9a53-10f3-46b4-8c2b-088b0f787da5}, ! Handle
  90.1-2001 Nonres B3 Roof Attic and Other, ! Name
  ,                                       ! Type
  Construction,                           ! Line Item Type
  90.1-2001 Nonres B3 Roof Attic and Other, ! Item Name
  ,                                       ! Object End Use Key
  ,                                       ! Quantity {dimensionless}
  33.39,                                  ! Material Cost {$}
  CostPerArea;                            ! Material Cost Units

