
OS:Version,
  {78c56172-adf1-419b-8497-19ed7c31b05d}, ! Handle
  0.9.3;                                  ! Version Identifier

OS:Material,
  {1b4116c1-2c0d-4b60-8006-379f94cd0851}, ! Handle
  Floor Insulation [11],                  ! Name
  MediumRough,                            ! Roughness
  0.152225,                               ! Thickness {m}
  0.045,                                  ! Conductivity {W/m-K}
  265,                                    ! Density {kg/m3}
  836.8,                                  ! Specific Heat {J/kg-K}
  0.9,                                    ! Thermal Absorptance
  0.7,                                    ! Solar Absorptance
  0.7;                                    ! Visible Absorptance

OS:Construction,
  {7dd3b239-ae2e-4ac2-a106-4be74229e078}, ! Handle
  189.1-2009 Res 7A Exposed Floor Mass,   ! Name
  ,                                       ! Surface Rendering Name
  {1b4116c1-2c0d-4b60-8006-379f94cd0851}, ! Layer 1
  {a34f2460-c742-4d78-a60c-1fff433d2ba9}, ! Layer 2
  {004f0b83-556e-4095-996e-9abfa9898ace}; ! Layer 3

OS:Material,
  {a34f2460-c742-4d78-a60c-1fff433d2ba9}, ! Handle
  MAT-CC05 8 HW CONCRETE,                 ! Name
  Rough,                                  ! Roughness
  0.20321,                                ! Thickness {m}
  1.311,                                  ! Conductivity {W/m-K}
  2240,                                   ! Density {kg/m3}
  836.8,                                  ! Specific Heat {J/kg-K}
  0.9,                                    ! Thermal Absorptance
  0.7,                                    ! Solar Absorptance
  0.7;                                    ! Visible Absorptance

OS:Material:NoMass,
  {004f0b83-556e-4095-996e-9abfa9898ace}, ! Handle
  CP02 CARPET PAD,                        ! Name
  VeryRough,                              ! Roughness
  0.21648,                                ! Thermal Resistance {m2-K/W}
  0.9,                                    ! Thermal Absorptance
  0.7,                                    ! Solar Absorptance
  0.8;                                    ! Visible Absorptance

OS:ComponentCost:LineItem,
  {0a99579f-fe5b-4389-b10d-267d489b0521}, ! Handle
  189.1-2009 Res 7A Exposed Floor Mass,   ! Name
  ,                                       ! Type
  Construction,                           ! Line Item Type
  189.1-2009 Res 7A Exposed Floor Mass,   ! Item Name
  ,                                       ! Object End Use Key
  ,                                       ! Quantity {dimensionless}
  66.669,                                 ! Material Cost {$}
  CostPerArea;                            ! Material Cost Units

