
OS:Version,
  {151ec357-53cc-49df-a6da-4208c5fb5c28}, ! Handle
  0.9.3;                                  ! Version Identifier

OS:WindowMaterial:Glazing,
  {f5750a61-3ada-4390-9a52-8449c9126387}, ! Handle
  Theoretical Glass [647],                ! Name
  SpectralAverage,                        ! Optical Data Type
  ,                                       ! Window Glass Spectral Data Set Name
  0.003,                                  ! Thickness {m}
  0.351757,                               ! Solar Transmittance at Normal Incidence
  0.598243,                               ! Front Side Solar Reflectance at Normal Incidence
  0.598243,                               ! Back Side Solar Reflectance at Normal Incidence
  0.460166,                               ! Visible Transmittance at Normal Incidence
  0.489834,                               ! Front Side Visible Reflectance at Normal Incidence
  0.489834,                               ! Back Side Visible Reflectance at Normal Incidence
  0,                                      ! Infrared Transmittance at Normal Incidence
  0.84,                                   ! Front Side Infrared Hemispherical Emissivity
  0.84,                                   ! Back Side Infrared Hemispherical Emissivity
  0.0305868;                              ! Conductivity {W/m-K}

OS:Construction,
  {ea1e1a6a-ec29-46b2-9af8-f4fd56a6152b}, ! Handle
  Title 24-2005 Nonres 2 Skylight without Curb, ! Name
  ,                                       ! Surface Rendering Name
  {f5750a61-3ada-4390-9a52-8449c9126387}; ! Layer 1

