
OS:Version,
  {f345d5fc-f32e-4137-b936-2e2cfe843ffa}, ! Handle
  0.9.3;                                  ! Version Identifier

OS:Construction,
  {131b88d2-3427-4866-bdee-c64293ca11c5}, ! Handle
  90.1-1999 Nonres B23 Roof IEAD,         ! Name
  ,                                       ! Surface Rendering Name
  {5acbb469-0b11-48c3-845e-05a1ba7edbc7}, ! Layer 1
  {78b7fd83-5670-426b-8a8d-ad39254ad2e3}, ! Layer 2
  {1d446c56-6edd-4e79-9ba6-1d4d97ffb32d}; ! Layer 3

OS:Material,
  {5acbb469-0b11-48c3-845e-05a1ba7edbc7}, ! Handle
  Roof Membrane,                          ! Name
  VeryRough,                              ! Roughness
  0.0095,                                 ! Thickness {m}
  0.16,                                   ! Conductivity {W/m-K}
  1121.29,                                ! Density {kg/m3}
  1460,                                   ! Specific Heat {J/kg-K}
  0.9,                                    ! Thermal Absorptance
  0.7,                                    ! Solar Absorptance
  0.7;                                    ! Visible Absorptance

OS:Material,
  {78b7fd83-5670-426b-8a8d-ad39254ad2e3}, ! Handle
  Roof Insulation,                        ! Name
  MediumRough,                            ! Roughness
  0.124958,                               ! Thickness {m}
  0.049,                                  ! Conductivity {W/m-K}
  265,                                    ! Density {kg/m3}
  836.8,                                  ! Specific Heat {J/kg-K}
  0.9,                                    ! Thermal Absorptance
  0.7,                                    ! Solar Absorptance
  0.7;                                    ! Visible Absorptance

OS:Material,
  {1d446c56-6edd-4e79-9ba6-1d4d97ffb32d}, ! Handle
  Metal Decking,                          ! Name
  MediumSmooth,                           ! Roughness
  0.001524,                               ! Thickness {m}
  45.006,                                 ! Conductivity {W/m-K}
  7680,                                   ! Density {kg/m3}
  418.4,                                  ! Specific Heat {J/kg-K}
  0.9,                                    ! Thermal Absorptance
  0.7,                                    ! Solar Absorptance
  0.3;                                    ! Visible Absorptance

OS:ComponentCost:LineItem,
  {7976722e-b6f2-4452-a553-389dde389901}, ! Handle
  90.1-1999 Nonres B23 Roof IEAD,         ! Name
  ,                                       ! Type
  Construction,                           ! Line Item Type
  90.1-1999 Nonres B23 Roof IEAD,         ! Item Name
  ,                                       ! Object End Use Key
  ,                                       ! Quantity {dimensionless}
  49.208,                                 ! Material Cost {$}
  CostPerArea;                            ! Material Cost Units

OS:ComponentData,
  {b1979dc1-f18b-4e5a-8c46-4c14d825c933}, ! Handle
  Component Data 1,                       ! Name
  {9c0d39b6-db90-4416-a985-e842880d6cfb}, ! UUID
  {db0a6b65-667d-4e92-a54e-08cc93c6eb70}, ! Version UUID
  1363981142,                             ! Creation Timestamp
  1363981142,                             ! Version Timestamp
  {131b88d2-3427-4866-bdee-c64293ca11c5}, ! Name of Object 1
  {5acbb469-0b11-48c3-845e-05a1ba7edbc7}, ! Name of Object 2
  {78b7fd83-5670-426b-8a8d-ad39254ad2e3}, ! Name of Object 3
  {1d446c56-6edd-4e79-9ba6-1d4d97ffb32d}, ! Name of Object 4
  {7976722e-b6f2-4452-a553-389dde389901}; ! Name of Object 5

