
OS:Version,
  {41c3037f-5db6-4b52-b4f1-ee81f416578e}, ! Handle
  0.9.3;                                  ! Version Identifier

OS:Material,
  {dc98243a-4460-42c3-9206-b4bbef74e189}, ! Handle
  Roof Insulation,                        ! Name
  MediumRough,                            ! Roughness
  0.124958,                               ! Thickness {m}
  0.049,                                  ! Conductivity {W/m-K}
  265,                                    ! Density {kg/m3}
  836.8,                                  ! Specific Heat {J/kg-K}
  0.9,                                    ! Thermal Absorptance
  0.7,                                    ! Solar Absorptance
  0.7;                                    ! Visible Absorptance

OS:Material,
  {c6a58182-f670-4a68-bf73-4503aaf035f0}, ! Handle
  Metal Decking,                          ! Name
  MediumSmooth,                           ! Roughness
  0.001524,                               ! Thickness {m}
  45.006,                                 ! Conductivity {W/m-K}
  7680,                                   ! Density {kg/m3}
  418.4,                                  ! Specific Heat {J/kg-K}
  0.9,                                    ! Thermal Absorptance
  0.7,                                    ! Solar Absorptance
  0.3;                                    ! Visible Absorptance

OS:Construction,
  {1e733155-334b-43cf-866e-f5a78c5d8bac}, ! Handle
  90.1-1999 Nonres B23 Roof IEAD,         ! Name
  ,                                       ! Surface Rendering Name
  {9a957d8e-41ba-443c-b9ae-b00dfdb807f7}, ! Layer 1
  {dc98243a-4460-42c3-9206-b4bbef74e189}, ! Layer 2
  {c6a58182-f670-4a68-bf73-4503aaf035f0}; ! Layer 3

OS:Material,
  {9a957d8e-41ba-443c-b9ae-b00dfdb807f7}, ! Handle
  Roof Membrane,                          ! Name
  VeryRough,                              ! Roughness
  0.0095,                                 ! Thickness {m}
  0.16,                                   ! Conductivity {W/m-K}
  1121.29,                                ! Density {kg/m3}
  1460,                                   ! Specific Heat {J/kg-K}
  0.9,                                    ! Thermal Absorptance
  0.7,                                    ! Solar Absorptance
  0.7;                                    ! Visible Absorptance

OS:ComponentCost:LineItem,
  {fda4d03f-8a05-4203-9907-b67af0b122d5}, ! Handle
  90.1-1999 Nonres B23 Roof IEAD,         ! Name
  ,                                       ! Type
  Construction,                           ! Line Item Type
  90.1-1999 Nonres B23 Roof IEAD,         ! Item Name
  ,                                       ! Object End Use Key
  ,                                       ! Quantity {dimensionless}
  49.208,                                 ! Material Cost {$}
  CostPerArea;                            ! Material Cost Units

