
OS:Version,
  {59b7e470-f726-40ad-86a2-2f1e4893ed80}, ! Handle
  0.9.3;                                  ! Version Identifier

OS:Construction,
  {804915fb-ab59-464c-b5ab-2e824c1c38ce}, ! Handle
  90.1-2007 Nonres 6B Window Metal framing entrance door, ! Name
  ,                                       ! Surface Rendering Name
  {a9d2e57a-14c5-4694-8b3e-8dd1fc6b5a15}; ! Layer 1

OS:WindowMaterial:Glazing,
  {a9d2e57a-14c5-4694-8b3e-8dd1fc6b5a15}, ! Handle
  Theoretical Glass [187],                ! Name
  SpectralAverage,                        ! Optical Data Type
  ,                                       ! Window Glass Spectral Data Set Name
  0.003,                                  ! Thickness {m}
  0.39034,                                ! Solar Transmittance at Normal Incidence
  0.55966,                                ! Front Side Solar Reflectance at Normal Incidence
  0.55966,                                ! Back Side Solar Reflectance at Normal Incidence
  0.507883,                               ! Visible Transmittance at Normal Incidence
  0.442117,                               ! Front Side Visible Reflectance at Normal Incidence
  0.442117,                               ! Back Side Visible Reflectance at Normal Incidence
  0,                                      ! Infrared Transmittance at Normal Incidence
  0.9,                                    ! Front Side Infrared Hemispherical Emissivity
  0.9,                                    ! Back Side Infrared Hemispherical Emissivity
  0.0457755;                              ! Conductivity {W/m-K}

OS:ComponentCost:LineItem,
  {84efcee8-b3fe-410f-b22e-0f6b79b20c79}, ! Handle
  90.1-2007 Nonres 6B Window Metal framing entrance door, ! Name
  ,                                       ! Type
  Construction,                           ! Line Item Type
  90.1-2007 Nonres 6B Window Metal framing entrance door, ! Item Name
  ,                                       ! Object End Use Key
  ,                                       ! Quantity {dimensionless}
  512.02,                                 ! Material Cost {$}
  CostPerArea;                            ! Material Cost Units

