
OS:Version,
  {5af61177-e93b-4f2e-8e6e-bf77cd8eaac8}, ! Handle
  0.9.3;                                  ! Version Identifier

OS:Construction,
  {391fd15d-443e-4092-a510-4e5c2b00c8d3}, ! Handle
  90.1-2004 Nonres 3C Window Fixed,       ! Name
  ,                                       ! Surface Rendering Name
  {5627633e-7e80-4d4d-82b8-e55dc9894dfe}; ! Layer 1

OS:WindowMaterial:Glazing,
  {5627633e-7e80-4d4d-82b8-e55dc9894dfe}, ! Handle
  Theoretical Glass [141],                ! Name
  SpectralAverage,                        ! Optical Data Type
  ,                                       ! Window Glass Spectral Data Set Name
  0.003,                                  ! Thickness {m}
  0.28689,                                ! Solar Transmittance at Normal Incidence
  0.66311,                                ! Front Side Solar Reflectance at Normal Incidence
  0.66311,                                ! Back Side Solar Reflectance at Normal Incidence
  0.301356,                               ! Visible Transmittance at Normal Incidence
  0.648644,                               ! Front Side Visible Reflectance at Normal Incidence
  0.648644,                               ! Back Side Visible Reflectance at Normal Incidence
  0,                                      ! Infrared Transmittance at Normal Incidence
  0.999,                                  ! Front Side Infrared Hemispherical Emissivity
  0.999,                                  ! Back Side Infrared Hemispherical Emissivity
  3.36874;                                ! Conductivity {W/m-K}

OS:ComponentCost:LineItem,
  {8471595f-4e83-4333-8e0a-e8c9ee9e7201}, ! Handle
  90.1-2004 Nonres 3C Window Fixed,       ! Name
  ,                                       ! Type
  Construction,                           ! Line Item Type
  90.1-2004 Nonres 3C Window Fixed,       ! Item Name
  ,                                       ! Object End Use Key
  ,                                       ! Quantity {dimensionless}
  473.607,                                ! Material Cost {$}
  CostPerArea;                            ! Material Cost Units

