
OS:Version,
  {835a4f02-b2af-413c-8d6f-df7ac3fdf33a}, ! Handle
  0.9.3;                                  ! Version Identifier

OS:Construction,
  {5943cbec-a548-4047-b30f-964e257d0244}, ! Handle
  90.1-2001 Nonres B22 Skylight without Curb, ! Name
  ,                                       ! Surface Rendering Name
  {ce44cd08-6188-470a-b4be-ba6f99152d2c}; ! Layer 1

OS:WindowMaterial:Glazing,
  {ce44cd08-6188-470a-b4be-ba6f99152d2c}, ! Handle
  Theoretical Glass [38],                 ! Name
  SpectralAverage,                        ! Optical Data Type
  ,                                       ! Window Glass Spectral Data Set Name
  0.003,                                  ! Thickness {m}
  0.670707,                               ! Solar Transmittance at Normal Incidence
  0.279293,                               ! Front Side Solar Reflectance at Normal Incidence
  0.279293,                               ! Back Side Solar Reflectance at Normal Incidence
  0.754945,                               ! Visible Transmittance at Normal Incidence
  0.195055,                               ! Front Side Visible Reflectance at Normal Incidence
  0.195055,                               ! Back Side Visible Reflectance at Normal Incidence
  0,                                      ! Infrared Transmittance at Normal Incidence
  0.9,                                    ! Front Side Infrared Hemispherical Emissivity
  0.9,                                    ! Back Side Infrared Hemispherical Emissivity
  0.03026;                                ! Conductivity {W/m-K}

OS:ComponentCost:LineItem,
  {fd3ce775-821c-4c67-9f28-038d3876684c}, ! Handle
  90.1-2001 Nonres B22 Skylight without Curb, ! Name
  ,                                       ! Type
  Construction,                           ! Line Item Type
  90.1-2001 Nonres B22 Skylight without Curb, ! Item Name
  ,                                       ! Object End Use Key
  ,                                       ! Quantity {dimensionless}
  502.229,                                ! Material Cost {$}
  CostPerArea;                            ! Material Cost Units

