
OS:Version,
  {7e9d415d-639c-40af-a850-07a820362c45}, ! Handle
  0.9.3;                                  ! Version Identifier

OS:Construction,
  {0d762fc0-f11b-4f2f-8689-63f17b94e9b5}, ! Handle
  90.1-1999 Res B5 Ext Slab Unheated - 8in Slab without Carpet, ! Name
  ,                                       ! Surface Rendering Name
  {db364827-4175-4839-b9d6-8e273dff32b5}; ! Layer 1

OS:Material,
  {db364827-4175-4839-b9d6-8e273dff32b5}, ! Handle
  MAT-CC05 8 HW CONCRETE,                 ! Name
  Rough,                                  ! Roughness
  0.20321,                                ! Thickness {m}
  1.311,                                  ! Conductivity {W/m-K}
  2240,                                   ! Density {kg/m3}
  836.8,                                  ! Specific Heat {J/kg-K}
  0.9,                                    ! Thermal Absorptance
  0.7,                                    ! Solar Absorptance
  0.7;                                    ! Visible Absorptance

OS:ComponentCost:LineItem,
  {e43e385a-12df-4dbe-9ddc-2f0a6e8ab7d7}, ! Handle
  90.1-1999 Res B5 Ext Slab Unheated - 8in Slab without Carpet, ! Name
  ,                                       ! Type
  Construction,                           ! Line Item Type
  90.1-1999 Res B5 Ext Slab Unheated - 8in Slab without Carpet, ! Item Name
  ,                                       ! Object End Use Key
  ,                                       ! Quantity {dimensionless}
  45.52,                                  ! Material Cost {$}
  CostPerArea;                            ! Material Cost Units

OS:ComponentData,
  {b59ce248-9f62-44a7-bc21-b39518d34a36}, ! Handle
  Component Data 1,                       ! Name
  {c7504b77-4d0b-4715-b7b3-39d5805898b4}, ! UUID
  {3c867ba7-6d35-408b-9bfb-9ef5d3c5f728}, ! Version UUID
  1363981183,                             ! Creation Timestamp
  1363981183,                             ! Version Timestamp
  {0d762fc0-f11b-4f2f-8689-63f17b94e9b5}, ! Name of Object 1
  {db364827-4175-4839-b9d6-8e273dff32b5}, ! Name of Object 2
  {e43e385a-12df-4dbe-9ddc-2f0a6e8ab7d7}; ! Name of Object 3

