
OS:Version,
  {db78ca5b-ab4c-4da8-bf6a-1d87e62f2f87}, ! Handle
  0.9.3;                                  ! Version Identifier

OS:Material,
  {c321cfbc-02c6-41c6-ba69-627f464c4183}, ! Handle
  MAT-CC05 8 HW CONCRETE,                 ! Name
  Rough,                                  ! Roughness
  0.20321,                                ! Thickness {m}
  1.311,                                  ! Conductivity {W/m-K}
  2240,                                   ! Density {kg/m3}
  836.8,                                  ! Specific Heat {J/kg-K}
  0.9,                                    ! Thermal Absorptance
  0.7,                                    ! Solar Absorptance
  0.7;                                    ! Visible Absorptance

OS:Construction,
  {327fd55d-705b-4ae2-b8ac-705d43d48d71}, ! Handle
  90.1-1999 Res B5 Ext Slab Unheated - 8in Slab without Carpet, ! Name
  ,                                       ! Surface Rendering Name
  {c321cfbc-02c6-41c6-ba69-627f464c4183}; ! Layer 1

OS:ComponentCost:LineItem,
  {a510f059-85a7-4824-b11e-e5952de37418}, ! Handle
  90.1-1999 Res B5 Ext Slab Unheated - 8in Slab without Carpet, ! Name
  ,                                       ! Type
  Construction,                           ! Line Item Type
  90.1-1999 Res B5 Ext Slab Unheated - 8in Slab without Carpet, ! Item Name
  ,                                       ! Object End Use Key
  ,                                       ! Quantity {dimensionless}
  45.52,                                  ! Material Cost {$}
  CostPerArea;                            ! Material Cost Units

