
OS:Version,
  {648796d6-7717-4ba4-9547-bcab092145f8}, !- Handle
  1.1.0;                                  !- Version Identifier

OS:Construction,
  {276dd5f0-85b5-489a-b3c7-21c7b3764108}, !- Handle
  Sgl Ref-A-M Tint 6mm,                   !- Name
  ,                                       !- Surface Rendering Name
  {b6ef4178-0e42-4461-89d2-0548afe39f09}; !- Layer 1

OS:WindowMaterial:Glazing,
  {b6ef4178-0e42-4461-89d2-0548afe39f09}, !- Handle
  REF A TINT MID 6MM,                     !- Name
  SpectralAverage,                        !- Optical Data Type
  ,                                       !- Window Glass Spectral Data Set Name
  0.006,                                  !- Thickness {m}
  0.06,                                   !- Solar Transmittance at Normal Incidence
  0.13,                                   !- Front Side Solar Reflectance at Normal Incidence
  0.42,                                   !- Back Side Solar Reflectance at Normal Incidence
  0.09,                                   !- Visible Transmittance at Normal Incidence
  0.14,                                   !- Front Side Visible Reflectance at Normal Incidence
  0.35,                                   !- Back Side Visible Reflectance at Normal Incidence
  0,                                      !- Infrared Transmittance at Normal Incidence
  0.84,                                   !- Front Side Infrared Hemispherical Emissivity
  0.47,                                   !- Back Side Infrared Hemispherical Emissivity
  0.9;                                    !- Conductivity {W/m-K}

