
OS:Version,
  {a1f15311-c66b-4079-926e-1cf2edf5f9d6}, !- Handle
  1.1.0;                                  !- Version Identifier

OS:Construction,
  {a3e971c9-fe77-4506-99aa-dd5100b0fd83}, !- Handle
  Sgl Ref-A-M Tint 6mm,                   !- Name
  ,                                       !- Surface Rendering Name
  {47034803-9247-453c-a204-92b4cdc5b1a0}; !- Layer 1

OS:WindowMaterial:Glazing,
  {47034803-9247-453c-a204-92b4cdc5b1a0}, !- Handle
  REF A TINT MID 6MM,                     !- Name
  SpectralAverage,                        !- Optical Data Type
  ,                                       !- Window Glass Spectral Data Set Name
  0.006,                                  !- Thickness {m}
  0.06,                                   !- Solar Transmittance at Normal Incidence
  0.13,                                   !- Front Side Solar Reflectance at Normal Incidence
  0.42,                                   !- Back Side Solar Reflectance at Normal Incidence
  0.09,                                   !- Visible Transmittance at Normal Incidence
  0.14,                                   !- Front Side Visible Reflectance at Normal Incidence
  0.35,                                   !- Back Side Visible Reflectance at Normal Incidence
  0,                                      !- Infrared Transmittance at Normal Incidence
  0.84,                                   !- Front Side Infrared Hemispherical Emissivity
  0.47,                                   !- Back Side Infrared Hemispherical Emissivity
  0.9;                                    !- Conductivity {W/m-K}

OS:ComponentData,
  {0df6305e-ba46-4815-84c1-1e1912d08f60}, !- Handle
  Component Data 1,                       !- Name
  {856e763c-d86b-4a3d-b25d-232a185f3335}, !- UUID
  {1d796140-afd6-481c-b2d7-f331cb75449e}, !- Version UUID
  1384380187,                             !- Creation Timestamp
  1384380187,                             !- Version Timestamp
  {a3e971c9-fe77-4506-99aa-dd5100b0fd83}, !- Name of Object 1
  {47034803-9247-453c-a204-92b4cdc5b1a0}; !- Name of Object 2

