
OS:Version,
  {5ed958b4-e74e-4fc9-b2c1-47f31604cfe3}, ! Handle
  0.9.3;                                  ! Version Identifier

OS:ComponentCost:LineItem,
  {205994cd-92a2-465e-ab6b-73e38d60f20a}, ! Handle
  Title 24-2008 Nonres 8 Ext Wall Metal Building, ! Name
  ,                                       ! Type
  Construction,                           ! Line Item Type
  Title 24-2008 Nonres 8 Ext Wall Metal Building, ! Item Name
  ,                                       ! Object End Use Key
  ,                                       ! Quantity {dimensionless}
  184.211,                                ! Material Cost {$}
  CostPerArea;                            ! Material Cost Units

OS:Construction,
  {498f9861-3689-407b-8a8a-787b30ac8e25}, ! Handle
  Title 24-2008 Nonres 8 Ext Wall Metal Building, ! Name
  ,                                       ! Surface Rendering Name
  {18055bfa-5e74-42e5-82b4-a90578e480d1}, ! Layer 1
  {7c3b9e75-d3e5-4833-a43b-00a9d61a80db}, ! Layer 2
  {cb2aaac9-3d0e-448c-8893-184ab0d4bb34}; ! Layer 3

OS:Material,
  {18055bfa-5e74-42e5-82b4-a90578e480d1}, ! Handle
  Metal Siding,                           ! Name
  Smooth,                                 ! Roughness
  0.0015,                                 ! Thickness {m}
  44.96,                                  ! Conductivity {W/m-K}
  7688.86,                                ! Density {kg/m3}
  410,                                    ! Specific Heat {J/kg-K}
  0.9,                                    ! Thermal Absorptance
  0.2,                                    ! Solar Absorptance
  0.2;                                    ! Visible Absorptance

OS:Material,
  {7c3b9e75-d3e5-4833-a43b-00a9d61a80db}, ! Handle
  Wall Insulation [159],                  ! Name
  MediumRough,                            ! Roughness
  0.0812,                                 ! Thickness {m}
  0.045,                                  ! Conductivity {W/m-K}
  265,                                    ! Density {kg/m3}
  836.8,                                  ! Specific Heat {J/kg-K}
  0.9,                                    ! Thermal Absorptance
  0.7,                                    ! Solar Absorptance
  0.7;                                    ! Visible Absorptance

OS:Material,
  {cb2aaac9-3d0e-448c-8893-184ab0d4bb34}, ! Handle
  1/2IN Gypsum,                           ! Name
  Smooth,                                 ! Roughness
  0.01271,                                ! Thickness {m}
  0.16,                                   ! Conductivity {W/m-K}
  784.9,                                  ! Density {kg/m3}
  830,                                    ! Specific Heat {J/kg-K}
  0.9,                                    ! Thermal Absorptance
  0.92,                                   ! Solar Absorptance
  0.92;                                   ! Visible Absorptance

