
OS:Version,
  {2bb6f45e-9813-4449-838d-5df615e60e44}, ! Handle
  0.9.3;                                  ! Version Identifier

OS:Construction,
  {b54b8f96-d238-4712-8d1b-53973b240cd7}, ! Handle
  90.1-1999 Nonres B20 Ext Wall Wood-Framed and Other, ! Name
  ,                                       ! Surface Rendering Name
  {5c1079b5-34b6-4120-ace7-e2fbf1630a3c}, ! Layer 1
  {8a52664d-7b8c-44ea-86bb-690115d5f3fa}, ! Layer 2
  {cf69c85d-5a31-4c91-ac6f-80a1a81e3563}; ! Layer 3

OS:Material,
  {5c1079b5-34b6-4120-ace7-e2fbf1630a3c}, ! Handle
  Wood Siding,                            ! Name
  MediumSmooth,                           ! Roughness
  0.01,                                   ! Thickness {m}
  0.11,                                   ! Conductivity {W/m-K}
  544.62,                                 ! Density {kg/m3}
  1210,                                   ! Specific Heat {J/kg-K}
  0.9,                                    ! Thermal Absorptance
  0.78,                                   ! Solar Absorptance
  0.78;                                   ! Visible Absorptance

OS:Material,
  {8a52664d-7b8c-44ea-86bb-690115d5f3fa}, ! Handle
  Wall Insulation [2],                    ! Name
  MediumRough,                            ! Roughness
  0.0746874,                              ! Thickness {m}
  0.045,                                  ! Conductivity {W/m-K}
  265,                                    ! Density {kg/m3}
  836.8,                                  ! Specific Heat {J/kg-K}
  0.9,                                    ! Thermal Absorptance
  0.7,                                    ! Solar Absorptance
  0.7;                                    ! Visible Absorptance

OS:Material,
  {cf69c85d-5a31-4c91-ac6f-80a1a81e3563}, ! Handle
  1/2IN Gypsum,                           ! Name
  Smooth,                                 ! Roughness
  0.01271,                                ! Thickness {m}
  0.16,                                   ! Conductivity {W/m-K}
  784.9,                                  ! Density {kg/m3}
  830,                                    ! Specific Heat {J/kg-K}
  0.9,                                    ! Thermal Absorptance
  0.92,                                   ! Solar Absorptance
  0.92;                                   ! Visible Absorptance

OS:ComponentCost:LineItem,
  {1bc51baf-7542-4b49-a837-5c2b90e39ef0}, ! Handle
  90.1-1999 Nonres B20 Ext Wall Wood-Framed and Other, ! Name
  ,                                       ! Type
  Construction,                           ! Line Item Type
  90.1-1999 Nonres B20 Ext Wall Wood-Framed and Other, ! Item Name
  ,                                       ! Object End Use Key
  ,                                       ! Quantity {dimensionless}
  73.056,                                 ! Material Cost {$}
  CostPerArea;                            ! Material Cost Units

OS:ComponentData,
  {244f4473-ac22-40a9-8a8c-40dc3beb01c8}, ! Handle
  Component Data 1,                       ! Name
  {b98169cc-c595-4092-a567-f1c95e3ca3d4}, ! UUID
  {eceb9f13-4cb3-4232-9bf0-362d8965545d}, ! Version UUID
  1363981128,                             ! Creation Timestamp
  1363981128,                             ! Version Timestamp
  {b54b8f96-d238-4712-8d1b-53973b240cd7}, ! Name of Object 1
  {5c1079b5-34b6-4120-ace7-e2fbf1630a3c}, ! Name of Object 2
  {8a52664d-7b8c-44ea-86bb-690115d5f3fa}, ! Name of Object 3
  {cf69c85d-5a31-4c91-ac6f-80a1a81e3563}, ! Name of Object 4
  {1bc51baf-7542-4b49-a837-5c2b90e39ef0}; ! Name of Object 5

