
OS:Version,
  {e616fbce-6fcf-4dc9-9846-cb6dc1b4f0ee}, ! Handle
  0.9.3;                                  ! Version Identifier

OS:Construction,
  {cf2e4ab0-7d49-4a4c-aeb4-0a895f26d9c7}, ! Handle
  90.1-2007 Nonres 3A Roof Metal Building, ! Name
  ,                                       ! Surface Rendering Name
  {929d2440-0b65-4f5f-ba2a-afd5daaa096c}, ! Layer 1
  {796d0ba1-449e-418e-96b0-c399d6787742}; ! Layer 2

OS:Material,
  {929d2440-0b65-4f5f-ba2a-afd5daaa096c}, ! Handle
  Metal Roofing,                          ! Name
  MediumSmooth,                           ! Roughness
  0.001524,                               ! Thickness {m}
  45.006,                                 ! Conductivity {W/m-K}
  7680,                                   ! Density {kg/m3}
  418.4,                                  ! Specific Heat {J/kg-K}
  0.9,                                    ! Thermal Absorptance
  0.7,                                    ! Solar Absorptance
  0.3;                                    ! Visible Absorptance

OS:Material,
  {796d0ba1-449e-418e-96b0-c399d6787742}, ! Handle
  Roof Insulation [15],                   ! Name
  MediumRough,                            ! Roughness
  0.123565,                               ! Thickness {m}
  0.049,                                  ! Conductivity {W/m-K}
  265,                                    ! Density {kg/m3}
  836.8,                                  ! Specific Heat {J/kg-K}
  0.9,                                    ! Thermal Absorptance
  0.7,                                    ! Solar Absorptance
  0.7;                                    ! Visible Absorptance

OS:ComponentCost:LineItem,
  {3903b5ae-7eb0-4811-b862-4a61c9431276}, ! Handle
  90.1-2007 Nonres 3A Roof Metal Building, ! Name
  ,                                       ! Type
  Construction,                           ! Line Item Type
  90.1-2007 Nonres 3A Roof Metal Building, ! Item Name
  ,                                       ! Object End Use Key
  ,                                       ! Quantity {dimensionless}
  38.21,                                  ! Material Cost {$}
  CostPerArea;                            ! Material Cost Units

