
OS:Version,
  {8e0702d7-bb9d-4729-b106-8682241906c2}, ! Handle
  0.9.3;                                  ! Version Identifier

OS:Material,
  {e749a80c-ea3c-466c-812a-930556083d21}, ! Handle
  1/2IN Gypsum,                           ! Name
  Smooth,                                 ! Roughness
  0.01271,                                ! Thickness {m}
  0.16,                                   ! Conductivity {W/m-K}
  784.9,                                  ! Density {kg/m3}
  830,                                    ! Specific Heat {J/kg-K}
  0.9,                                    ! Thermal Absorptance
  0.92,                                   ! Solar Absorptance
  0.92;                                   ! Visible Absorptance

OS:Construction,
  {7d3cc7ec-0784-45e6-9c27-4949bf1526a4}, ! Handle
  90.1-2004 Res 8A Ext Wall Wood-Framed and Other, ! Name
  ,                                       ! Surface Rendering Name
  {c3f48440-7287-40a0-9bb4-af1dd24d2c35}, ! Layer 1
  {2cb1a6e9-4687-4cda-b3d4-1f1d96a205a0}, ! Layer 2
  {e749a80c-ea3c-466c-812a-930556083d21}; ! Layer 3

OS:Material,
  {c3f48440-7287-40a0-9bb4-af1dd24d2c35}, ! Handle
  Wood Siding,                            ! Name
  MediumSmooth,                           ! Roughness
  0.01,                                   ! Thickness {m}
  0.11,                                   ! Conductivity {W/m-K}
  544.62,                                 ! Density {kg/m3}
  1210,                                   ! Specific Heat {J/kg-K}
  0.9,                                    ! Thermal Absorptance
  0.78,                                   ! Solar Absorptance
  0.78;                                   ! Visible Absorptance

OS:Material,
  {2cb1a6e9-4687-4cda-b3d4-1f1d96a205a0}, ! Handle
  Wall Insulation [13],                   ! Name
  MediumRough,                            ! Roughness
  0.140713,                               ! Thickness {m}
  0.045,                                  ! Conductivity {W/m-K}
  265,                                    ! Density {kg/m3}
  836.8,                                  ! Specific Heat {J/kg-K}
  0.9,                                    ! Thermal Absorptance
  0.7,                                    ! Solar Absorptance
  0.7;                                    ! Visible Absorptance

OS:ComponentCost:LineItem,
  {9cacf2f6-23b2-4fb9-80be-093d974c65f7}, ! Handle
  90.1-2004 Res 8A Ext Wall Wood-Framed and Other, ! Name
  ,                                       ! Type
  Construction,                           ! Line Item Type
  90.1-2004 Res 8A Ext Wall Wood-Framed and Other, ! Item Name
  ,                                       ! Object End Use Key
  ,                                       ! Quantity {dimensionless}
  80.638,                                 ! Material Cost {$}
  CostPerArea;                            ! Material Cost Units

