
OS:Version,
  {f67d09ef-444e-486e-9eb9-085af346313b}, ! Handle
  0.9.3;                                  ! Version Identifier

OS:Construction,
  {38d8df6a-410e-42aa-93f3-e809edb20c3a}, ! Handle
  90.1-2004 Res 8A Ext Wall Wood-Framed and Other, ! Name
  ,                                       ! Surface Rendering Name
  {4b491dcf-81ff-4c85-8d01-9dc950db3ee6}, ! Layer 1
  {5f3e6f7a-19db-4b8c-b6e3-9bbde94c75eb}, ! Layer 2
  {6e43f4e8-3d9c-45ee-b4df-99a5b873e26d}; ! Layer 3

OS:Material,
  {4b491dcf-81ff-4c85-8d01-9dc950db3ee6}, ! Handle
  Wood Siding,                            ! Name
  MediumSmooth,                           ! Roughness
  0.01,                                   ! Thickness {m}
  0.11,                                   ! Conductivity {W/m-K}
  544.62,                                 ! Density {kg/m3}
  1210,                                   ! Specific Heat {J/kg-K}
  0.9,                                    ! Thermal Absorptance
  0.78,                                   ! Solar Absorptance
  0.78;                                   ! Visible Absorptance

OS:Material,
  {5f3e6f7a-19db-4b8c-b6e3-9bbde94c75eb}, ! Handle
  Wall Insulation [13],                   ! Name
  MediumRough,                            ! Roughness
  0.140713,                               ! Thickness {m}
  0.045,                                  ! Conductivity {W/m-K}
  265,                                    ! Density {kg/m3}
  836.8,                                  ! Specific Heat {J/kg-K}
  0.9,                                    ! Thermal Absorptance
  0.7,                                    ! Solar Absorptance
  0.7;                                    ! Visible Absorptance

OS:Material,
  {6e43f4e8-3d9c-45ee-b4df-99a5b873e26d}, ! Handle
  1/2IN Gypsum,                           ! Name
  Smooth,                                 ! Roughness
  0.01271,                                ! Thickness {m}
  0.16,                                   ! Conductivity {W/m-K}
  784.9,                                  ! Density {kg/m3}
  830,                                    ! Specific Heat {J/kg-K}
  0.9,                                    ! Thermal Absorptance
  0.92,                                   ! Solar Absorptance
  0.92;                                   ! Visible Absorptance

OS:ComponentCost:LineItem,
  {7d3b60d1-5a97-4f5c-ba3b-4603211a666c}, ! Handle
  90.1-2004 Res 8A Ext Wall Wood-Framed and Other, ! Name
  ,                                       ! Type
  Construction,                           ! Line Item Type
  90.1-2004 Res 8A Ext Wall Wood-Framed and Other, ! Item Name
  ,                                       ! Object End Use Key
  ,                                       ! Quantity {dimensionless}
  80.638,                                 ! Material Cost {$}
  CostPerArea;                            ! Material Cost Units

OS:ComponentData,
  {510383d5-6ac7-4c30-a469-d4c320d3e6e9}, ! Handle
  Component Data 1,                       ! Name
  {c03d9284-0a1d-457a-81fb-f9517ee7a354}, ! UUID
  {975150d5-f008-4cf9-a949-474a3043002a}, ! Version UUID
  1363981768,                             ! Creation Timestamp
  1363981768,                             ! Version Timestamp
  {38d8df6a-410e-42aa-93f3-e809edb20c3a}, ! Name of Object 1
  {4b491dcf-81ff-4c85-8d01-9dc950db3ee6}, ! Name of Object 2
  {5f3e6f7a-19db-4b8c-b6e3-9bbde94c75eb}, ! Name of Object 3
  {6e43f4e8-3d9c-45ee-b4df-99a5b873e26d}, ! Name of Object 4
  {7d3b60d1-5a97-4f5c-ba3b-4603211a666c}; ! Name of Object 5

