
! 
OS:Version,
  {8503bb35-3288-4176-9c41-752f3d976c4b}, !- Handle
  1.13.0;                                 !- Version Identifier


! 
OS:Material,
  {f3ebc682-c95f-456b-8269-c0a86d52a4ed}, !- Handle
  Aislamiento: SATE
WEBER: weber.therm placa PF 20 (0.020 m)
R: 1.0 m2K/W,                             !- Name
  MediumRough,                                 !- Roughness
  0.02,                                    !- Thickness {m}
  0.021,                                    !- Conductivity {W/m-K}
  35.0,                                    !- Density {kg/m3}
  800.0,                                    !- Specific Heat {J/kg-K}
  0.9,                                    !- Thermal Absorptance
  0.6,                                    !- Solar Absorptance
  0.6;                                    !- Visible Absorptance

