
OS:Version,
  {38942329-5b2b-49d3-a2e1-4ec09a6ffb12}, ! Handle
  0.9.3;                                  ! Version Identifier

OS:Construction,
  {9c3af956-b6c4-48ea-8779-f2f27ee1ad8f}, ! Handle
  90.1-2004 Res 8A Ext Slab Unheated - 8in Slab with Carpet, ! Name
  ,                                       ! Surface Rendering Name
  {04ecb73b-2117-4480-8045-43f0afe7529c}, ! Layer 1
  {c312aaa4-8010-48c0-addd-07539fbe1831}; ! Layer 2

OS:Material,
  {04ecb73b-2117-4480-8045-43f0afe7529c}, ! Handle
  MAT-CC05 8 HW CONCRETE,                 ! Name
  Rough,                                  ! Roughness
  0.20321,                                ! Thickness {m}
  1.311,                                  ! Conductivity {W/m-K}
  2240,                                   ! Density {kg/m3}
  836.8,                                  ! Specific Heat {J/kg-K}
  0.9,                                    ! Thermal Absorptance
  0.7,                                    ! Solar Absorptance
  0.7;                                    ! Visible Absorptance

OS:Material:NoMass,
  {c312aaa4-8010-48c0-addd-07539fbe1831}, ! Handle
  CP02 CARPET PAD,                        ! Name
  VeryRough,                              ! Roughness
  0.21648,                                ! Thermal Resistance {m2-K/W}
  0.9,                                    ! Thermal Absorptance
  0.7,                                    ! Solar Absorptance
  0.8;                                    ! Visible Absorptance

OS:ComponentCost:LineItem,
  {0a6f8932-6bde-4869-8e3a-bc2a1187fe1d}, ! Handle
  90.1-2004 Res 8A Ext Slab Unheated - 8in Slab with Carpet, ! Name
  ,                                       ! Type
  Construction,                           ! Line Item Type
  90.1-2004 Res 8A Ext Slab Unheated - 8in Slab with Carpet, ! Item Name
  ,                                       ! Object End Use Key
  ,                                       ! Quantity {dimensionless}
  45.52,                                  ! Material Cost {$}
  CostPerArea;                            ! Material Cost Units

OS:ComponentData,
  {3712f9d0-b748-43f6-8ef6-e6c63fc4db66}, ! Handle
  Component Data 1,                       ! Name
  {b32b48b1-7ec8-456d-8034-847d5bcb8d71}, ! UUID
  {c9db50df-1261-41c3-996d-9f961d577d8a}, ! Version UUID
  1363981769,                             ! Creation Timestamp
  1363981769,                             ! Version Timestamp
  {9c3af956-b6c4-48ea-8779-f2f27ee1ad8f}, ! Name of Object 1
  {04ecb73b-2117-4480-8045-43f0afe7529c}, ! Name of Object 2
  {c312aaa4-8010-48c0-addd-07539fbe1831}, ! Name of Object 3
  {0a6f8932-6bde-4869-8e3a-bc2a1187fe1d}; ! Name of Object 4

