
OS:Version,
  {dba706bd-32db-41ab-8f99-c5cfb49c4874}, ! Handle
  0.9.3;                                  ! Version Identifier

OS:Material,
  {d2f00c05-9c96-4e73-b2cb-1ec4511e1220}, ! Handle
  Metal Roofing,                          ! Name
  MediumSmooth,                           ! Roughness
  0.001524,                               ! Thickness {m}
  45.006,                                 ! Conductivity {W/m-K}
  7680,                                   ! Density {kg/m3}
  418.4,                                  ! Specific Heat {J/kg-K}
  0.9,                                    ! Thermal Absorptance
  0.7,                                    ! Solar Absorptance
  0.3;                                    ! Visible Absorptance

OS:Construction,
  {ddd07ea0-b7da-4acd-a94e-6b1245e5fb30}, ! Handle
  90.1-1999 Nonres B4 Roof Metal Building, ! Name
  ,                                       ! Surface Rendering Name
  {d2f00c05-9c96-4e73-b2cb-1ec4511e1220}, ! Layer 1
  {6b5e8ec8-15bd-4b06-86dd-94d69af7305b}; ! Layer 2

OS:Material,
  {6b5e8ec8-15bd-4b06-86dd-94d69af7305b}, ! Handle
  Roof Insulation [1],                    ! Name
  MediumRough,                            ! Roughness
  0.123533,                               ! Thickness {m}
  0.049,                                  ! Conductivity {W/m-K}
  265,                                    ! Density {kg/m3}
  836.8,                                  ! Specific Heat {J/kg-K}
  0.9,                                    ! Thermal Absorptance
  0.7,                                    ! Solar Absorptance
  0.7;                                    ! Visible Absorptance

OS:ComponentCost:LineItem,
  {306ac2a9-4592-41d7-b65a-5a8bae6839e1}, ! Handle
  90.1-1999 Nonres B4 Roof Metal Building, ! Name
  ,                                       ! Type
  Construction,                           ! Line Item Type
  90.1-1999 Nonres B4 Roof Metal Building, ! Item Name
  ,                                       ! Object End Use Key
  ,                                       ! Quantity {dimensionless}
  38.206,                                 ! Material Cost {$}
  CostPerArea;                            ! Material Cost Units

