
OS:Version,
  {6c4dc70f-40fd-4cf2-9be5-96cbf6a8e58c}, ! Handle
  0.9.3;                                  ! Version Identifier

OS:Construction,
  {91e1046b-c5c7-4bbb-9de6-f6da645a67aa}, ! Handle
  90.1-1999 Nonres B4 Roof Metal Building, ! Name
  ,                                       ! Surface Rendering Name
  {2ac7c7e1-a0c2-4249-a0b1-33b7c993c687}, ! Layer 1
  {00ef10b4-2d81-48ed-9715-84bedb6144df}; ! Layer 2

OS:Material,
  {2ac7c7e1-a0c2-4249-a0b1-33b7c993c687}, ! Handle
  Metal Roofing,                          ! Name
  MediumSmooth,                           ! Roughness
  0.001524,                               ! Thickness {m}
  45.006,                                 ! Conductivity {W/m-K}
  7680,                                   ! Density {kg/m3}
  418.4,                                  ! Specific Heat {J/kg-K}
  0.9,                                    ! Thermal Absorptance
  0.7,                                    ! Solar Absorptance
  0.3;                                    ! Visible Absorptance

OS:Material,
  {00ef10b4-2d81-48ed-9715-84bedb6144df}, ! Handle
  Roof Insulation [1],                    ! Name
  MediumRough,                            ! Roughness
  0.123533,                               ! Thickness {m}
  0.049,                                  ! Conductivity {W/m-K}
  265,                                    ! Density {kg/m3}
  836.8,                                  ! Specific Heat {J/kg-K}
  0.9,                                    ! Thermal Absorptance
  0.7,                                    ! Solar Absorptance
  0.7;                                    ! Visible Absorptance

OS:ComponentCost:LineItem,
  {b367c67a-f0c3-4ac8-b8a4-cfa257387dc3}, ! Handle
  90.1-1999 Nonres B4 Roof Metal Building, ! Name
  ,                                       ! Type
  Construction,                           ! Line Item Type
  90.1-1999 Nonres B4 Roof Metal Building, ! Item Name
  ,                                       ! Object End Use Key
  ,                                       ! Quantity {dimensionless}
  38.206,                                 ! Material Cost {$}
  CostPerArea;                            ! Material Cost Units

OS:ComponentData,
  {7083858d-cafc-4cde-8454-65f8428b7d86}, ! Handle
  Component Data 1,                       ! Name
  {1b866d1a-d23c-4aa3-9ed7-69d26521e9c5}, ! UUID
  {46b06a76-924d-4161-b37f-5bded35dee89}, ! Version UUID
  1363981051,                             ! Creation Timestamp
  1363981051,                             ! Version Timestamp
  {91e1046b-c5c7-4bbb-9de6-f6da645a67aa}, ! Name of Object 1
  {2ac7c7e1-a0c2-4249-a0b1-33b7c993c687}, ! Name of Object 2
  {00ef10b4-2d81-48ed-9715-84bedb6144df}, ! Name of Object 3
  {b367c67a-f0c3-4ac8-b8a4-cfa257387dc3}; ! Name of Object 4

