
OS:Version,
  {784497d9-3fdd-4281-9ae1-afea725d5eda}, ! Handle
  0.9.3;                                  ! Version Identifier

OS:Material,
  {4d9b9d77-1428-4d57-af23-680a794106c4}, ! Handle
  Wall Insulation [29],                   ! Name
  MediumRough,                            ! Roughness
  0.129788,                               ! Thickness {m}
  0.0432,                                 ! Conductivity {W/m-K}
  91,                                     ! Density {kg/m3}
  837,                                    ! Specific Heat {J/kg-K}
  0.9,                                    ! Thermal Absorptance
  0.5,                                    ! Solar Absorptance
  0.5;                                    ! Visible Absorptance

OS:Material,
  {fa89fd31-59b4-4b5d-bbd6-3e96f135a508}, ! Handle
  1IN Stucco,                             ! Name
  Smooth,                                 ! Roughness
  0.0253,                                 ! Thickness {m}
  0.6918,                                 ! Conductivity {W/m-K}
  1858,                                   ! Density {kg/m3}
  837,                                    ! Specific Heat {J/kg-K}
  0.9,                                    ! Thermal Absorptance
  0.92,                                   ! Solar Absorptance
  0.92;                                   ! Visible Absorptance

OS:ComponentCost:LineItem,
  {9dfd1ede-89f9-42d0-b1d4-559bc3dd8da2}, ! Handle
  90.1-2007 Res 8A Ext Wall Mass,         ! Name
  ,                                       ! Type
  Construction,                           ! Line Item Type
  90.1-2007 Res 8A Ext Wall Mass,         ! Item Name
  ,                                       ! Object End Use Key
  ,                                       ! Quantity {dimensionless}
  79.034,                                 ! Material Cost {$}
  CostPerArea;                            ! Material Cost Units

OS:Construction,
  {9fc4d391-be01-4bec-9af7-83664a29cb6d}, ! Handle
  90.1-2007 Res 8A Ext Wall Mass,         ! Name
  ,                                       ! Surface Rendering Name
  {fa89fd31-59b4-4b5d-bbd6-3e96f135a508}, ! Layer 1
  {d97b1cc7-ab93-4853-8df4-0822f719262c}, ! Layer 2
  {4d9b9d77-1428-4d57-af23-680a794106c4}, ! Layer 3
  {95082f51-c10a-440a-b4c0-0dc27afb6ee1}; ! Layer 4

OS:Material,
  {d97b1cc7-ab93-4853-8df4-0822f719262c}, ! Handle
  8IN Concrete HW,                        ! Name
  MediumRough,                            ! Roughness
  0.2033,                                 ! Thickness {m}
  1.7296,                                 ! Conductivity {W/m-K}
  2243,                                   ! Density {kg/m3}
  837,                                    ! Specific Heat {J/kg-K}
  0.9,                                    ! Thermal Absorptance
  0.65,                                   ! Solar Absorptance
  0.65;                                   ! Visible Absorptance

OS:Material,
  {95082f51-c10a-440a-b4c0-0dc27afb6ee1}, ! Handle
  1/2IN Gypsum,                           ! Name
  Smooth,                                 ! Roughness
  0.01271,                                ! Thickness {m}
  0.16,                                   ! Conductivity {W/m-K}
  784.9,                                  ! Density {kg/m3}
  830,                                    ! Specific Heat {J/kg-K}
  0.9,                                    ! Thermal Absorptance
  0.92,                                   ! Solar Absorptance
  0.92;                                   ! Visible Absorptance

