
OS:Version,
  {b8ee0ca3-6d11-4269-9a3c-c7a32c5e6725}, ! Handle
  0.9.3;                                  ! Version Identifier

OS:Construction,
  {8c5ecfe7-4ed0-445e-b3fa-3a72f30ddca5}, ! Handle
  90.1-2007 Res 8A Ext Wall Mass,         ! Name
  ,                                       ! Surface Rendering Name
  {b7796159-6bac-4936-a1d7-4bb693c3b98a}, ! Layer 1
  {240d5b63-f04d-470e-821c-7295c299c3f6}, ! Layer 2
  {38c3d1fe-c20f-4980-9ff7-cd768ec3a399}, ! Layer 3
  {77330a66-a27d-4ae0-b5cc-58cb140fb081}; ! Layer 4

OS:Material,
  {b7796159-6bac-4936-a1d7-4bb693c3b98a}, ! Handle
  1IN Stucco,                             ! Name
  Smooth,                                 ! Roughness
  0.0253,                                 ! Thickness {m}
  0.6918,                                 ! Conductivity {W/m-K}
  1858,                                   ! Density {kg/m3}
  837,                                    ! Specific Heat {J/kg-K}
  0.9,                                    ! Thermal Absorptance
  0.92,                                   ! Solar Absorptance
  0.92;                                   ! Visible Absorptance

OS:Material,
  {240d5b63-f04d-470e-821c-7295c299c3f6}, ! Handle
  8IN Concrete HW,                        ! Name
  MediumRough,                            ! Roughness
  0.2033,                                 ! Thickness {m}
  1.7296,                                 ! Conductivity {W/m-K}
  2243,                                   ! Density {kg/m3}
  837,                                    ! Specific Heat {J/kg-K}
  0.9,                                    ! Thermal Absorptance
  0.65,                                   ! Solar Absorptance
  0.65;                                   ! Visible Absorptance

OS:Material,
  {38c3d1fe-c20f-4980-9ff7-cd768ec3a399}, ! Handle
  Wall Insulation [29],                   ! Name
  MediumRough,                            ! Roughness
  0.129788,                               ! Thickness {m}
  0.0432,                                 ! Conductivity {W/m-K}
  91,                                     ! Density {kg/m3}
  837,                                    ! Specific Heat {J/kg-K}
  0.9,                                    ! Thermal Absorptance
  0.5,                                    ! Solar Absorptance
  0.5;                                    ! Visible Absorptance

OS:Material,
  {77330a66-a27d-4ae0-b5cc-58cb140fb081}, ! Handle
  1/2IN Gypsum,                           ! Name
  Smooth,                                 ! Roughness
  0.01271,                                ! Thickness {m}
  0.16,                                   ! Conductivity {W/m-K}
  784.9,                                  ! Density {kg/m3}
  830,                                    ! Specific Heat {J/kg-K}
  0.9,                                    ! Thermal Absorptance
  0.92,                                   ! Solar Absorptance
  0.92;                                   ! Visible Absorptance

OS:ComponentCost:LineItem,
  {0ebb1b8e-bee5-4ef3-8312-9425e8434263}, ! Handle
  90.1-2007 Res 8A Ext Wall Mass,         ! Name
  ,                                       ! Type
  Construction,                           ! Line Item Type
  90.1-2007 Res 8A Ext Wall Mass,         ! Item Name
  ,                                       ! Object End Use Key
  ,                                       ! Quantity {dimensionless}
  79.034,                                 ! Material Cost {$}
  CostPerArea;                            ! Material Cost Units

OS:ComponentData,
  {9a16802d-3606-4328-a66b-5afd771384fd}, ! Handle
  Component Data 1,                       ! Name
  {30b70fd2-fab7-40ff-ac1c-7914866d633c}, ! UUID
  {14b51213-977a-42f6-9db8-805f6b769632}, ! Version UUID
  1363981876,                             ! Creation Timestamp
  1363981876,                             ! Version Timestamp
  {8c5ecfe7-4ed0-445e-b3fa-3a72f30ddca5}, ! Name of Object 1
  {b7796159-6bac-4936-a1d7-4bb693c3b98a}, ! Name of Object 2
  {240d5b63-f04d-470e-821c-7295c299c3f6}, ! Name of Object 3
  {38c3d1fe-c20f-4980-9ff7-cd768ec3a399}, ! Name of Object 4
  {77330a66-a27d-4ae0-b5cc-58cb140fb081}, ! Name of Object 5
  {0ebb1b8e-bee5-4ef3-8312-9425e8434263}; ! Name of Object 6

