
OS:Version,
  {da012260-f894-471c-bbb5-62a28cc6372b}, ! Handle
  0.9.3;                                  ! Version Identifier

OS:Material,
  {37ecfa2a-8f16-4d20-8faf-8a98a0c3ba51}, ! Handle
  1IN Stucco,                             ! Name
  Smooth,                                 ! Roughness
  0.0253,                                 ! Thickness {m}
  0.6918,                                 ! Conductivity {W/m-K}
  1858,                                   ! Density {kg/m3}
  837,                                    ! Specific Heat {J/kg-K}
  0.9,                                    ! Thermal Absorptance
  0.92,                                   ! Solar Absorptance
  0.92;                                   ! Visible Absorptance

OS:ComponentCost:LineItem,
  {ae52d298-5263-42d6-a9e7-91011f3ad7af}, ! Handle
  Title 24-2008 Nonres 14 Ext Wall Mass,  ! Name
  ,                                       ! Type
  Construction,                           ! Line Item Type
  Title 24-2008 Nonres 14 Ext Wall Mass,  ! Item Name
  ,                                       ! Object End Use Key
  ,                                       ! Quantity {dimensionless}
  211.895,                                ! Material Cost {$}
  CostPerArea;                            ! Material Cost Units

OS:Construction,
  {593af646-77b1-4e0e-9ee9-fffd23fba517}, ! Handle
  Title 24-2008 Nonres 14 Ext Wall Mass,  ! Name
  ,                                       ! Surface Rendering Name
  {37ecfa2a-8f16-4d20-8faf-8a98a0c3ba51}, ! Layer 1
  {8eea9c64-9df2-40a5-817e-92bf783d64a7}, ! Layer 2
  {87b0322b-0a53-467c-abbb-f50aaa82f910}, ! Layer 3
  {a4b44765-1d49-46a4-a5a2-fbe2dc7d4880}; ! Layer 4

OS:Material,
  {8eea9c64-9df2-40a5-817e-92bf783d64a7}, ! Handle
  8IN Concrete HW,                        ! Name
  MediumRough,                            ! Roughness
  0.2033,                                 ! Thickness {m}
  1.7296,                                 ! Conductivity {W/m-K}
  2243,                                   ! Density {kg/m3}
  837,                                    ! Specific Heat {J/kg-K}
  0.9,                                    ! Thermal Absorptance
  0.65,                                   ! Solar Absorptance
  0.65;                                   ! Visible Absorptance

OS:Material,
  {87b0322b-0a53-467c-abbb-f50aaa82f910}, ! Handle
  Wall Insulation [158],                  ! Name
  MediumRough,                            ! Roughness
  0.0509,                                 ! Thickness {m}
  0.0432,                                 ! Conductivity {W/m-K}
  91,                                     ! Density {kg/m3}
  837,                                    ! Specific Heat {J/kg-K}
  0.9,                                    ! Thermal Absorptance
  0.5,                                    ! Solar Absorptance
  0.5;                                    ! Visible Absorptance

OS:Material,
  {a4b44765-1d49-46a4-a5a2-fbe2dc7d4880}, ! Handle
  1/2IN Gypsum,                           ! Name
  Smooth,                                 ! Roughness
  0.01271,                                ! Thickness {m}
  0.16,                                   ! Conductivity {W/m-K}
  784.9,                                  ! Density {kg/m3}
  830,                                    ! Specific Heat {J/kg-K}
  0.9,                                    ! Thermal Absorptance
  0.92,                                   ! Solar Absorptance
  0.92;                                   ! Visible Absorptance

