
OS:Version,
  {83243415-dd8f-41c9-ac52-fe3310c7345d}, ! Handle
  0.9.3;                                  ! Version Identifier

OS:WindowMaterial:Glazing,
  {1d18916a-8b0f-40d4-8da2-428a17fd50a6}, ! Handle
  Theoretical Glass [95],                 ! Name
  SpectralAverage,                        ! Optical Data Type
  ,                                       ! Window Glass Spectral Data Set Name
  0.003,                                  ! Thickness {m}
  0.662387,                               ! Solar Transmittance at Normal Incidence
  0.287613,                               ! Front Side Solar Reflectance at Normal Incidence
  0.287613,                               ! Back Side Solar Reflectance at Normal Incidence
  0.754945,                               ! Visible Transmittance at Normal Incidence
  0.195055,                               ! Front Side Visible Reflectance at Normal Incidence
  0.195055,                               ! Back Side Visible Reflectance at Normal Incidence
  0,                                      ! Infrared Transmittance at Normal Incidence
  0.9,                                    ! Front Side Infrared Hemispherical Emissivity
  0.9,                                    ! Back Side Infrared Hemispherical Emissivity
  0.0324872;                              ! Conductivity {W/m-K}

OS:ComponentCost:LineItem,
  {38e5f389-6f96-42c8-937b-dc44ea6e5567}, ! Handle
  90.1-2001 Res B18 Skylight without Curb, ! Name
  ,                                       ! Type
  Construction,                           ! Line Item Type
  90.1-2001 Res B18 Skylight without Curb, ! Item Name
  ,                                       ! Object End Use Key
  ,                                       ! Quantity {dimensionless}
  502.229,                                ! Material Cost {$}
  CostPerArea;                            ! Material Cost Units

OS:Construction,
  {3b74d93e-37cf-4e86-92b9-6b1687356fa1}, ! Handle
  90.1-2001 Res B18 Skylight without Curb, ! Name
  ,                                       ! Surface Rendering Name
  {1d18916a-8b0f-40d4-8da2-428a17fd50a6}; ! Layer 1

