
OS:Version,
  {4b8a86ab-bfb8-4d16-aff1-201270c944d1}, ! Handle
  0.9.3;                                  ! Version Identifier

OS:Construction,
  {46efb11b-3c70-4261-84b7-644a6d86866a}, ! Handle
  90.1-2004 Res 5B Int Wall,              ! Name
  ,                                       ! Surface Rendering Name
  {6037ba74-ed7c-4e93-8567-586f36b7778b}, ! Layer 1
  {6037ba74-ed7c-4e93-8567-586f36b7778b}; ! Layer 2

OS:Material,
  {6037ba74-ed7c-4e93-8567-586f36b7778b}, ! Handle
  GP01 1/2 GYPSUM,                        ! Name
  Smooth,                                 ! Roughness
  0.01271,                                ! Thickness {m}
  0.16,                                   ! Conductivity {W/m-K}
  800,                                    ! Density {kg/m3}
  1090,                                   ! Specific Heat {J/kg-K}
  0.9,                                    ! Thermal Absorptance
  0.7,                                    ! Solar Absorptance
  0.5;                                    ! Visible Absorptance

OS:ComponentCost:LineItem,
  {1187e8fd-c9ae-452e-960b-f45255308038}, ! Handle
  90.1-2004 Res 5B Int Wall,              ! Name
  ,                                       ! Type
  Construction,                           ! Line Item Type
  90.1-2004 Res 5B Int Wall,              ! Item Name
  ,                                       ! Object End Use Key
  ,                                       ! Quantity {dimensionless}
  0,                                      ! Material Cost {$}
  CostPerArea;                            ! Material Cost Units

OS:Material,
  {a1c62eab-e4f4-4e2c-b3d8-d954495ea54c}, ! Handle
  GP01 1/2 GYPSUM 1,                      ! Name
  Smooth,                                 ! Roughness
  0.01271,                                ! Thickness {m}
  0.16,                                   ! Conductivity {W/m-K}
  800,                                    ! Density {kg/m3}
  1090,                                   ! Specific Heat {J/kg-K}
  0.9,                                    ! Thermal Absorptance
  0.7,                                    ! Solar Absorptance
  0.5;                                    ! Visible Absorptance

