
OS:Version,
  {e24b7975-5543-46f2-bf4a-daf5033a0e8c}, ! Handle
  0.9.3;                                  ! Version Identifier

OS:Construction,
  {a67b7960-47ab-4151-8b78-5957d172a516}, ! Handle
  90.1-1999 Res B10 Ext Wall Mass,        ! Name
  ,                                       ! Surface Rendering Name
  {5828e79f-61f9-4c2f-92f9-5691e3e4150a}, ! Layer 1
  {373f6d98-96f4-4ebf-ba03-891fa73da475}, ! Layer 2
  {25e7d110-3b85-4fb7-a65e-b4f214334c56}, ! Layer 3
  {ee0bae5f-a0bb-4182-886d-784c6bc5027a}; ! Layer 4

OS:Material,
  {5828e79f-61f9-4c2f-92f9-5691e3e4150a}, ! Handle
  1IN Stucco,                             ! Name
  Smooth,                                 ! Roughness
  0.0253,                                 ! Thickness {m}
  0.6918,                                 ! Conductivity {W/m-K}
  1858,                                   ! Density {kg/m3}
  837,                                    ! Specific Heat {J/kg-K}
  0.9,                                    ! Thermal Absorptance
  0.92,                                   ! Solar Absorptance
  0.92;                                   ! Visible Absorptance

OS:Material,
  {373f6d98-96f4-4ebf-ba03-891fa73da475}, ! Handle
  8IN Concrete HW,                        ! Name
  MediumRough,                            ! Roughness
  0.2033,                                 ! Thickness {m}
  1.7296,                                 ! Conductivity {W/m-K}
  2243,                                   ! Density {kg/m3}
  837,                                    ! Specific Heat {J/kg-K}
  0.9,                                    ! Thermal Absorptance
  0.65,                                   ! Solar Absorptance
  0.65;                                   ! Visible Absorptance

OS:Material,
  {25e7d110-3b85-4fb7-a65e-b4f214334c56}, ! Handle
  Wall Insulation [5],                    ! Name
  MediumRough,                            ! Roughness
  0.0453274,                              ! Thickness {m}
  0.0432,                                 ! Conductivity {W/m-K}
  91,                                     ! Density {kg/m3}
  837,                                    ! Specific Heat {J/kg-K}
  0.9,                                    ! Thermal Absorptance
  0.5,                                    ! Solar Absorptance
  0.5;                                    ! Visible Absorptance

OS:Material,
  {ee0bae5f-a0bb-4182-886d-784c6bc5027a}, ! Handle
  1/2IN Gypsum,                           ! Name
  Smooth,                                 ! Roughness
  0.01271,                                ! Thickness {m}
  0.16,                                   ! Conductivity {W/m-K}
  784.9,                                  ! Density {kg/m3}
  830,                                    ! Specific Heat {J/kg-K}
  0.9,                                    ! Thermal Absorptance
  0.92,                                   ! Solar Absorptance
  0.92;                                   ! Visible Absorptance

OS:ComponentCost:LineItem,
  {6505855f-448e-480b-bd92-7f16986a74a6}, ! Handle
  90.1-1999 Res B10 Ext Wall Mass,        ! Name
  ,                                       ! Type
  Construction,                           ! Line Item Type
  90.1-1999 Res B10 Ext Wall Mass,        ! Item Name
  ,                                       ! Object End Use Key
  ,                                       ! Quantity {dimensionless}
  61.418,                                 ! Material Cost {$}
  CostPerArea;                            ! Material Cost Units

