
OS:Version,
  {31ad2e9f-1954-487e-8a8c-f8251277f4b3}, ! Handle
  0.9.3;                                  ! Version Identifier

OS:Construction,
  {346d65ea-a740-47ca-876d-ecaca8e855f8}, ! Handle
  90.1-2007 Res 3A Roof Metal Building,   ! Name
  ,                                       ! Surface Rendering Name
  {def8881e-26a7-400d-8662-fe1353f9cd6a}, ! Layer 1
  {d516d217-c8d1-41d5-9f80-d315f2aab563}; ! Layer 2

OS:Material,
  {def8881e-26a7-400d-8662-fe1353f9cd6a}, ! Handle
  Metal Roofing,                          ! Name
  MediumSmooth,                           ! Roughness
  0.001524,                               ! Thickness {m}
  45.006,                                 ! Conductivity {W/m-K}
  7680,                                   ! Density {kg/m3}
  418.4,                                  ! Specific Heat {J/kg-K}
  0.9,                                    ! Thermal Absorptance
  0.7,                                    ! Solar Absorptance
  0.3;                                    ! Visible Absorptance

OS:Material,
  {d516d217-c8d1-41d5-9f80-d315f2aab563}, ! Handle
  Roof Insulation [15],                   ! Name
  MediumRough,                            ! Roughness
  0.123565,                               ! Thickness {m}
  0.049,                                  ! Conductivity {W/m-K}
  265,                                    ! Density {kg/m3}
  836.8,                                  ! Specific Heat {J/kg-K}
  0.9,                                    ! Thermal Absorptance
  0.7,                                    ! Solar Absorptance
  0.7;                                    ! Visible Absorptance

OS:ComponentCost:LineItem,
  {cd24ef67-3664-46e8-9b99-c1f6e1eaad4e}, ! Handle
  90.1-2007 Res 3A Roof Metal Building,   ! Name
  ,                                       ! Type
  Construction,                           ! Line Item Type
  90.1-2007 Res 3A Roof Metal Building,   ! Item Name
  ,                                       ! Object End Use Key
  ,                                       ! Quantity {dimensionless}
  38.21,                                  ! Material Cost {$}
  CostPerArea;                            ! Material Cost Units

