
OS:Version,
  {a2fb0cb0-bd8e-456a-a7c6-ba690d0ca2db}, ! Handle
  0.9.3;                                  ! Version Identifier

OS:Material,
  {c880d35c-21a6-46df-a8f5-4bd6f0c07964}, ! Handle
  1/2IN Gypsum Top,                       ! Name
  Smooth,                                 ! Roughness
  0.01271,                                ! Thickness {m}
  0.16,                                   ! Conductivity {W/m-K}
  784.9,                                  ! Density {kg/m3}
  830,                                    ! Specific Heat {J/kg-K}
  0.9,                                    ! Thermal Absorptance
  0.92,                                   ! Solar Absorptance
  0.92;                                   ! Visible Absorptance

OS:Material,
  {de281ff1-ef3d-49af-a4d9-8832db68e9ec}, ! Handle
  1/2IN Gypsum Bottom,                    ! Name
  Smooth,                                 ! Roughness
  0.01271,                                ! Thickness {m}
  0.16,                                   ! Conductivity {W/m-K}
  784.9,                                  ! Density {kg/m3}
  830,                                    ! Specific Heat {J/kg-K}
  0.9,                                    ! Thermal Absorptance
  0.92,                                   ! Solar Absorptance
  0.92;                                   ! Visible Absorptance

OS:Material,
  {c287e0fb-11e2-4beb-9483-7c0c1f7b7b23}, ! Handle
  AtticFloor Insulation [3],              ! Name
  MediumRough,                            ! Roughness
  0.310733,                               ! Thickness {m}
  0.049,                                  ! Conductivity {W/m-K}
  265,                                    ! Density {kg/m3}
  836.8,                                  ! Specific Heat {J/kg-K}
  0.9,                                    ! Thermal Absorptance
  0.7,                                    ! Solar Absorptance
  0.7;                                    ! Visible Absorptance

OS:Construction,
  {6b47a76f-7ed6-4c24-b076-7a73a0c44f41}, ! Handle
  189.1-2009 Nonres 1A Attic Floor,       ! Name
  ,                                       ! Surface Rendering Name
  {c880d35c-21a6-46df-a8f5-4bd6f0c07964}, ! Layer 1
  {c287e0fb-11e2-4beb-9483-7c0c1f7b7b23}, ! Layer 2
  {de281ff1-ef3d-49af-a4d9-8832db68e9ec}; ! Layer 3

OS:ComponentCost:LineItem,
  {3e331d37-331e-4bc8-a533-78d673c2bee1}, ! Handle
  189.1-2009 Nonres 1A Attic Floor,       ! Name
  ,                                       ! Type
  Construction,                           ! Line Item Type
  189.1-2009 Nonres 1A Attic Floor,       ! Item Name
  ,                                       ! Object End Use Key
  ,                                       ! Quantity {dimensionless}
  35.211,                                 ! Material Cost {$}
  CostPerArea;                            ! Material Cost Units

