
OS:Version,
  {b5fc7529-f3a9-4a81-a778-163cdd184ca2}, ! Handle
  0.9.3;                                  ! Version Identifier

OS:ComponentCost:LineItem,
  {a67be860-d420-45d9-b5b4-57f73eee80cd}, ! Handle
  90.1-1999 Nonres B12 Ext Wall Metal Building, ! Name
  ,                                       ! Type
  Construction,                           ! Line Item Type
  90.1-1999 Nonres B12 Ext Wall Metal Building, ! Item Name
  ,                                       ! Object End Use Key
  ,                                       ! Quantity {dimensionless}
  98.78,                                  ! Material Cost {$}
  CostPerArea;                            ! Material Cost Units

OS:Construction,
  {198668a9-f370-4549-86a0-224ff3ce3d5e}, ! Handle
  90.1-1999 Nonres B12 Ext Wall Metal Building, ! Name
  ,                                       ! Surface Rendering Name
  {ea5585bb-80ea-4840-b46d-4a3d932ca216}, ! Layer 1
  {15511c78-c8f9-46fb-ad62-a80a70768380}, ! Layer 2
  {3b8d2516-d08d-4e61-bb00-3c44ad276e1e}; ! Layer 3

OS:Material,
  {ea5585bb-80ea-4840-b46d-4a3d932ca216}, ! Handle
  Metal Siding,                           ! Name
  Smooth,                                 ! Roughness
  0.0015,                                 ! Thickness {m}
  44.96,                                  ! Conductivity {W/m-K}
  7688.86,                                ! Density {kg/m3}
  410,                                    ! Specific Heat {J/kg-K}
  0.9,                                    ! Thermal Absorptance
  0.2,                                    ! Solar Absorptance
  0.2;                                    ! Visible Absorptance

OS:Material,
  {15511c78-c8f9-46fb-ad62-a80a70768380}, ! Handle
  Wall Insulation,                        ! Name
  MediumRough,                            ! Roughness
  0.0598725,                              ! Thickness {m}
  0.045,                                  ! Conductivity {W/m-K}
  265,                                    ! Density {kg/m3}
  836.8,                                  ! Specific Heat {J/kg-K}
  0.9,                                    ! Thermal Absorptance
  0.7,                                    ! Solar Absorptance
  0.7;                                    ! Visible Absorptance

OS:Material,
  {3b8d2516-d08d-4e61-bb00-3c44ad276e1e}, ! Handle
  1/2IN Gypsum,                           ! Name
  Smooth,                                 ! Roughness
  0.01271,                                ! Thickness {m}
  0.16,                                   ! Conductivity {W/m-K}
  784.9,                                  ! Density {kg/m3}
  830,                                    ! Specific Heat {J/kg-K}
  0.9,                                    ! Thermal Absorptance
  0.92,                                   ! Solar Absorptance
  0.92;                                   ! Visible Absorptance

