
OS:Version,
  {6eb4d87c-2aa7-42ca-beba-c296bed0de32}, ! Handle
  0.9.3;                                  ! Version Identifier

OS:ComponentCost:LineItem,
  {6eaeae5a-f04a-4cf5-926a-a7316d381807}, ! Handle
  90.1-2004 Nonres 8A Roof Metal Building, ! Name
  ,                                       ! Type
  Construction,                           ! Line Item Type
  90.1-2004 Nonres 8A Roof Metal Building, ! Item Name
  ,                                       ! Object End Use Key
  ,                                       ! Quantity {dimensionless}
  42.184,                                 ! Material Cost {$}
  CostPerArea;                            ! Material Cost Units

OS:Construction,
  {b493957b-2584-46f3-bf36-2136ae010cfb}, ! Handle
  90.1-2004 Nonres 8A Roof Metal Building, ! Name
  ,                                       ! Surface Rendering Name
  {ac93a290-0d7c-4d91-9b0a-b7ad3ebb4ed1}, ! Layer 1
  {3f258bf1-0297-450e-b95d-906b6c0fdb80}; ! Layer 2

OS:Material,
  {ac93a290-0d7c-4d91-9b0a-b7ad3ebb4ed1}, ! Handle
  Metal Roofing,                          ! Name
  MediumSmooth,                           ! Roughness
  0.001524,                               ! Thickness {m}
  45.006,                                 ! Conductivity {W/m-K}
  7680,                                   ! Density {kg/m3}
  418.4,                                  ! Specific Heat {J/kg-K}
  0.9,                                    ! Thermal Absorptance
  0.7,                                    ! Solar Absorptance
  0.3;                                    ! Visible Absorptance

OS:Material,
  {3f258bf1-0297-450e-b95d-906b6c0fdb80}, ! Handle
  Roof Insulation [8],                    ! Name
  MediumRough,                            ! Roughness
  0.166908,                               ! Thickness {m}
  0.049,                                  ! Conductivity {W/m-K}
  265,                                    ! Density {kg/m3}
  836.8,                                  ! Specific Heat {J/kg-K}
  0.9,                                    ! Thermal Absorptance
  0.7,                                    ! Solar Absorptance
  0.7;                                    ! Visible Absorptance

