
OS:Version,
  {85b0d180-28e4-4b6a-8614-caf865bb0145}, ! Handle
  0.9.3;                                  ! Version Identifier

OS:Construction,
  {b5026e1f-ecb2-46f2-832c-63762a44e423}, ! Handle
  90.1-2004 Nonres 8A Roof Metal Building, ! Name
  ,                                       ! Surface Rendering Name
  {aa1b10d3-0612-4d28-8a4e-bfa0e84c48f4}, ! Layer 1
  {386ed9eb-b485-414f-aeeb-9d6b1f5d74a1}; ! Layer 2

OS:Material,
  {aa1b10d3-0612-4d28-8a4e-bfa0e84c48f4}, ! Handle
  Metal Roofing,                          ! Name
  MediumSmooth,                           ! Roughness
  0.001524,                               ! Thickness {m}
  45.006,                                 ! Conductivity {W/m-K}
  7680,                                   ! Density {kg/m3}
  418.4,                                  ! Specific Heat {J/kg-K}
  0.9,                                    ! Thermal Absorptance
  0.7,                                    ! Solar Absorptance
  0.3;                                    ! Visible Absorptance

OS:Material,
  {386ed9eb-b485-414f-aeeb-9d6b1f5d74a1}, ! Handle
  Roof Insulation [8],                    ! Name
  MediumRough,                            ! Roughness
  0.166908,                               ! Thickness {m}
  0.049,                                  ! Conductivity {W/m-K}
  265,                                    ! Density {kg/m3}
  836.8,                                  ! Specific Heat {J/kg-K}
  0.9,                                    ! Thermal Absorptance
  0.7,                                    ! Solar Absorptance
  0.7;                                    ! Visible Absorptance

OS:ComponentCost:LineItem,
  {b8ea0891-c25d-4b9b-9ccf-377435df9547}, ! Handle
  90.1-2004 Nonres 8A Roof Metal Building, ! Name
  ,                                       ! Type
  Construction,                           ! Line Item Type
  90.1-2004 Nonres 8A Roof Metal Building, ! Item Name
  ,                                       ! Object End Use Key
  ,                                       ! Quantity {dimensionless}
  42.184,                                 ! Material Cost {$}
  CostPerArea;                            ! Material Cost Units

OS:ComponentData,
  {3b324ebb-feab-47f5-9c56-7d67e2e72de1}, ! Handle
  Component Data 1,                       ! Name
  {2f23fde6-8cd6-4b55-87c9-92cda3be905a}, ! UUID
  {34a38f51-0642-4e3d-8275-fcd741c076d9}, ! Version UUID
  1363981700,                             ! Creation Timestamp
  1363981700,                             ! Version Timestamp
  {b5026e1f-ecb2-46f2-832c-63762a44e423}, ! Name of Object 1
  {aa1b10d3-0612-4d28-8a4e-bfa0e84c48f4}, ! Name of Object 2
  {386ed9eb-b485-414f-aeeb-9d6b1f5d74a1}, ! Name of Object 3
  {b8ea0891-c25d-4b9b-9ccf-377435df9547}; ! Name of Object 4

