
OS:Version,
  {c55571de-f68d-4c2f-8c52-4f64e6f3a51a}, ! Handle
  0.9.3;                                  ! Version Identifier

OS:Construction,
  {a1edf023-43f7-47e0-afeb-2a3fea460d89}, ! Handle
  AEDG SHC Nonres 4B Skylight Glass Skylight with Curb, ! Name
  ,                                       ! Surface Rendering Name
  {23dc1bbd-7b7f-4f4e-8f8d-4f753f1bf09a}; ! Layer 1

OS:WindowMaterial:Glazing,
  {23dc1bbd-7b7f-4f4e-8f8d-4f753f1bf09a}, ! Handle
  Theoretical Glass [241],                ! Name
  SpectralAverage,                        ! Optical Data Type
  ,                                       ! Window Glass Spectral Data Set Name
  0.003,                                  ! Thickness {m}
  0.381632,                               ! Solar Transmittance at Normal Incidence
  0.568368,                               ! Front Side Solar Reflectance at Normal Incidence
  0.568368,                               ! Back Side Solar Reflectance at Normal Incidence
  0.330719,                               ! Visible Transmittance at Normal Incidence
  0.619281,                               ! Front Side Visible Reflectance at Normal Incidence
  0.619281,                               ! Back Side Visible Reflectance at Normal Incidence
  0,                                      ! Infrared Transmittance at Normal Incidence
  0.9,                                    ! Front Side Infrared Hemispherical Emissivity
  0.9,                                    ! Back Side Infrared Hemispherical Emissivity
  0.0230964;                              ! Conductivity {W/m-K}

OS:ComponentCost:LineItem,
  {679430fc-50e0-456c-b046-5cb9be2f816e}, ! Handle
  AEDG SHC Nonres 4B Skylight Glass Skylight with Curb, ! Name
  ,                                       ! Type
  Construction,                           ! Line Item Type
  AEDG SHC Nonres 4B Skylight Glass Skylight with Curb, ! Item Name
  ,                                       ! Object End Use Key
  ,                                       ! Quantity {dimensionless}
  0,                                      ! Material Cost {$}
  CostPerArea;                            ! Material Cost Units

OS:ComponentData,
  {d84400eb-9c65-40d8-82f7-bdbaf75fcc37}, ! Handle
  Component Data 1,                       ! Name
  {4a19369d-0bc8-4103-91f7-8258df682712}, ! UUID
  {203ad72f-a654-4236-b3f7-e7bc981a1f76}, ! Version UUID
  1363981923,                             ! Creation Timestamp
  1363981923,                             ! Version Timestamp
  {a1edf023-43f7-47e0-afeb-2a3fea460d89}, ! Name of Object 1
  {23dc1bbd-7b7f-4f4e-8f8d-4f753f1bf09a}, ! Name of Object 2
  {679430fc-50e0-456c-b046-5cb9be2f816e}; ! Name of Object 3

