
OS:Version,
  {fc2eaa8d-9e58-4103-b02d-18aa701a82fe}, ! Handle
  0.9.3;                                  ! Version Identifier

OS:Construction,
  {cf3b91d0-436c-4706-ac42-ee1a22a403c6}, ! Handle
  AEDG SHC Nonres 5B Window Fixed,        ! Name
  ,                                       ! Surface Rendering Name
  {64543c0b-5728-4683-9ef6-7e10ada805ff}; ! Layer 1

OS:WindowMaterial:Glazing,
  {64543c0b-5728-4683-9ef6-7e10ada805ff}, ! Handle
  Theoretical Glass [240],                ! Name
  SpectralAverage,                        ! Optical Data Type
  ,                                       ! Window Glass Spectral Data Set Name
  0.003,                                  ! Thickness {m}
  0.319571,                               ! Solar Transmittance at Normal Incidence
  0.630429,                               ! Front Side Solar Reflectance at Normal Incidence
  0.630429,                               ! Back Side Solar Reflectance at Normal Incidence
  0.689609,                               ! Visible Transmittance at Normal Incidence
  0.260391,                               ! Front Side Visible Reflectance at Normal Incidence
  0.260391,                               ! Back Side Visible Reflectance at Normal Incidence
  0,                                      ! Infrared Transmittance at Normal Incidence
  0.9,                                    ! Front Side Infrared Hemispherical Emissivity
  0.9,                                    ! Back Side Infrared Hemispherical Emissivity
  0.00683479;                             ! Conductivity {W/m-K}

OS:ComponentCost:LineItem,
  {435ce8ac-0075-499c-8542-e5a4a2039ed4}, ! Handle
  AEDG SHC Nonres 5B Window Fixed,        ! Name
  ,                                       ! Type
  Construction,                           ! Line Item Type
  AEDG SHC Nonres 5B Window Fixed,        ! Item Name
  ,                                       ! Object End Use Key
  ,                                       ! Quantity {dimensionless}
  0,                                      ! Material Cost {$}
  CostPerArea;                            ! Material Cost Units

