
OS:Version,
  {f94a0622-4254-4bb4-85d7-c6eeecdad51b}, !- Handle
  1.1.0;                                  !- Version Identifier

OS:Construction,
  {d8c6ce26-e332-44d7-a5e3-7bb18dbca4ca}, !- Handle
  Trp LoE (e2=e5=.1) Clr 3mm/13mm Arg,    !- Name
  ,                                       !- Surface Rendering Name
  {2b393629-15c6-4ef2-93cc-03868c105d1d}, !- Layer 1
  {40356eca-194e-403f-88ff-e5269dc18d05}, !- Layer 2
  {a3e249b9-4e90-4ba3-9940-a9c81474c8ce}, !- Layer 3
  {40356eca-194e-403f-88ff-e5269dc18d05}, !- Layer 4
  {06503f2c-8445-40d8-9632-568b2e63c5d9}; !- Layer 5

OS:WindowMaterial:Glazing,
  {2b393629-15c6-4ef2-93cc-03868c105d1d}, !- Handle
  LoE CLEAR 3MM,                          !- Name
  SpectralAverage,                        !- Optical Data Type
  ,                                       !- Window Glass Spectral Data Set Name
  0.003,                                  !- Thickness {m}
  0.63,                                   !- Solar Transmittance at Normal Incidence
  0.19,                                   !- Front Side Solar Reflectance at Normal Incidence
  0.22,                                   !- Back Side Solar Reflectance at Normal Incidence
  0.85,                                   !- Visible Transmittance at Normal Incidence
  0.056,                                  !- Front Side Visible Reflectance at Normal Incidence
  0.079,                                  !- Back Side Visible Reflectance at Normal Incidence
  0,                                      !- Infrared Transmittance at Normal Incidence
  0.84,                                   !- Front Side Infrared Hemispherical Emissivity
  0.1,                                    !- Back Side Infrared Hemispherical Emissivity
  0.9;                                    !- Conductivity {W/m-K}

OS:WindowMaterial:Gas,
  {40356eca-194e-403f-88ff-e5269dc18d05}, !- Handle
  ARGON 13MM,                             !- Name
  Argon,                                  !- Gas Type
  0.0127;                                 !- Thickness {m}

OS:WindowMaterial:Glazing,
  {a3e249b9-4e90-4ba3-9940-a9c81474c8ce}, !- Handle
  CLEAR 3MM,                              !- Name
  SpectralAverage,                        !- Optical Data Type
  ,                                       !- Window Glass Spectral Data Set Name
  0.003,                                  !- Thickness {m}
  0.837,                                  !- Solar Transmittance at Normal Incidence
  0.075,                                  !- Front Side Solar Reflectance at Normal Incidence
  0.075,                                  !- Back Side Solar Reflectance at Normal Incidence
  0.898,                                  !- Visible Transmittance at Normal Incidence
  0.081,                                  !- Front Side Visible Reflectance at Normal Incidence
  0.081,                                  !- Back Side Visible Reflectance at Normal Incidence
  0,                                      !- Infrared Transmittance at Normal Incidence
  0.84,                                   !- Front Side Infrared Hemispherical Emissivity
  0.84,                                   !- Back Side Infrared Hemispherical Emissivity
  0.9;                                    !- Conductivity {W/m-K}

OS:WindowMaterial:Glazing,
  {06503f2c-8445-40d8-9632-568b2e63c5d9}, !- Handle
  LoE CLEAR 3MM Rev,                      !- Name
  SpectralAverage,                        !- Optical Data Type
  ,                                       !- Window Glass Spectral Data Set Name
  0.003,                                  !- Thickness {m}
  0.63,                                   !- Solar Transmittance at Normal Incidence
  0.22,                                   !- Front Side Solar Reflectance at Normal Incidence
  0.19,                                   !- Back Side Solar Reflectance at Normal Incidence
  0.85,                                   !- Visible Transmittance at Normal Incidence
  0.079,                                  !- Front Side Visible Reflectance at Normal Incidence
  0.056,                                  !- Back Side Visible Reflectance at Normal Incidence
  0,                                      !- Infrared Transmittance at Normal Incidence
  0.1,                                    !- Front Side Infrared Hemispherical Emissivity
  0.84,                                   !- Back Side Infrared Hemispherical Emissivity
  0.9;                                    !- Conductivity {W/m-K}

OS:ComponentData,
  {16214328-1788-4595-8a50-c176ebfb24cd}, !- Handle
  Component Data 1,                       !- Name
  {65963f02-c6d2-4453-a34f-2daabfe2cf40}, !- UUID
  {9b93ff47-57d5-4ab7-b944-8e073f6c73b4}, !- Version UUID
  1384380187,                             !- Creation Timestamp
  1384380187,                             !- Version Timestamp
  {d8c6ce26-e332-44d7-a5e3-7bb18dbca4ca}, !- Name of Object 1
  {2b393629-15c6-4ef2-93cc-03868c105d1d}, !- Name of Object 2
  {40356eca-194e-403f-88ff-e5269dc18d05}, !- Name of Object 3
  {a3e249b9-4e90-4ba3-9940-a9c81474c8ce}, !- Name of Object 4
  {06503f2c-8445-40d8-9632-568b2e63c5d9}; !- Name of Object 5

