
OS:Version,
  {b5d57d6f-5324-49fd-a195-b7e119a333f9}, ! Handle
  0.9.3;                                  ! Version Identifier

OS:Construction,
  {d489968b-48cf-4c59-84ff-706ead55eeed}, ! Handle
  90.1 Windows Window Fixed 2626 Vnl-HptMpr-Ins-ClrPye, ! Name
  ,                                       ! Surface Rendering Name
  {36ecda99-c265-4e84-b3d3-d0cbeba63883}; ! Layer 1

OS:WindowMaterial:Glazing,
  {36ecda99-c265-4e84-b3d3-d0cbeba63883}, ! Handle
  Theoretical Glass [538],                ! Name
  SpectralAverage,                        ! Optical Data Type
  ,                                       ! Window Glass Spectral Data Set Name
  0.003,                                  ! Thickness {m}
  0.207287,                               ! Solar Transmittance at Normal Incidence
  0.742713,                               ! Front Side Solar Reflectance at Normal Incidence
  0.742713,                               ! Back Side Solar Reflectance at Normal Incidence
  0.310844,                               ! Visible Transmittance at Normal Incidence
  0.639156,                               ! Front Side Visible Reflectance at Normal Incidence
  0.639156,                               ! Back Side Visible Reflectance at Normal Incidence
  0,                                      ! Infrared Transmittance at Normal Incidence
  0.9,                                    ! Front Side Infrared Hemispherical Emissivity
  0.9,                                    ! Back Side Infrared Hemispherical Emissivity
  0.00882078;                             ! Conductivity {W/m-K}

OS:ComponentCost:LineItem,
  {13de420f-7f38-4b19-b49a-e1d6434dddcd}, ! Handle
  90.1 Windows Window Fixed 2626 Vnl-HptMpr-Ins-ClrPye, ! Name
  ,                                       ! Type
  Construction,                           ! Line Item Type
  90.1 Windows Window Fixed 2626 Vnl-HptMpr-Ins-ClrPye, ! Item Name
  ,                                       ! Object End Use Key
  ,                                       ! Quantity {dimensionless}
  0,                                      ! Material Cost {$}
  CostPerArea;                            ! Material Cost Units

OS:ComponentData,
  {fa3b7d0d-e1d6-4c8f-a119-f9ef3ed966b7}, ! Handle
  Component Data 1,                       ! Name
  {2cde4786-02dd-45f8-9f8c-7fd827c66182}, ! UUID
  {4e5de2aa-4b97-474d-b382-be4fe7f37a15}, ! Version UUID
  1363981027,                             ! Creation Timestamp
  1363981027,                             ! Version Timestamp
  {d489968b-48cf-4c59-84ff-706ead55eeed}, ! Name of Object 1
  {36ecda99-c265-4e84-b3d3-d0cbeba63883}, ! Name of Object 2
  {13de420f-7f38-4b19-b49a-e1d6434dddcd}; ! Name of Object 3

