
OS:Version,
  {a7047844-d1df-4e13-a74b-74c103f42778}, ! Handle
  0.9.3;                                  ! Version Identifier

OS:ComponentCost:LineItem,
  {9ea66699-848f-43c1-91d2-da9c36e7657c}, ! Handle
  90.1 Windows Window Fixed 2626 Vnl-HptMpr-Ins-ClrPye, ! Name
  ,                                       ! Type
  Construction,                           ! Line Item Type
  90.1 Windows Window Fixed 2626 Vnl-HptMpr-Ins-ClrPye, ! Item Name
  ,                                       ! Object End Use Key
  ,                                       ! Quantity {dimensionless}
  0,                                      ! Material Cost {$}
  CostPerArea;                            ! Material Cost Units

OS:Construction,
  {3c803cf5-79e3-4a50-9c68-9718a72b5adc}, ! Handle
  90.1 Windows Window Fixed 2626 Vnl-HptMpr-Ins-ClrPye, ! Name
  ,                                       ! Surface Rendering Name
  {e0416f0d-0db3-490d-b280-5ac0fe7721be}; ! Layer 1

OS:WindowMaterial:Glazing,
  {e0416f0d-0db3-490d-b280-5ac0fe7721be}, ! Handle
  Theoretical Glass [538],                ! Name
  SpectralAverage,                        ! Optical Data Type
  ,                                       ! Window Glass Spectral Data Set Name
  0.003,                                  ! Thickness {m}
  0.207287,                               ! Solar Transmittance at Normal Incidence
  0.742713,                               ! Front Side Solar Reflectance at Normal Incidence
  0.742713,                               ! Back Side Solar Reflectance at Normal Incidence
  0.310844,                               ! Visible Transmittance at Normal Incidence
  0.639156,                               ! Front Side Visible Reflectance at Normal Incidence
  0.639156,                               ! Back Side Visible Reflectance at Normal Incidence
  0,                                      ! Infrared Transmittance at Normal Incidence
  0.9,                                    ! Front Side Infrared Hemispherical Emissivity
  0.9,                                    ! Back Side Infrared Hemispherical Emissivity
  0.00882078;                             ! Conductivity {W/m-K}

