
OS:Version,
  {65709d3a-ccaf-46a2-9f3c-968b3407d6b6}, ! Handle
  0.9.3;                                  ! Version Identifier

OS:Construction,
  {5b99e362-8ef5-4390-9828-a203d23eb10e}, ! Handle
  90.1-2001 Nonres B15 Ext Slab Unheated - 4in Slab without Carpet, ! Name
  ,                                       ! Surface Rendering Name
  {b432971b-07d1-4e9f-b076-59dc4ebf5e7b}; ! Layer 1

OS:Material,
  {b432971b-07d1-4e9f-b076-59dc4ebf5e7b}, ! Handle
  MAT-CC05 4 HW CONCRETE,                 ! Name
  Rough,                                  ! Roughness
  0.1016,                                 ! Thickness {m}
  1.311,                                  ! Conductivity {W/m-K}
  2240,                                   ! Density {kg/m3}
  836.8,                                  ! Specific Heat {J/kg-K}
  0.9,                                    ! Thermal Absorptance
  0.7,                                    ! Solar Absorptance
  0.7;                                    ! Visible Absorptance

OS:ComponentCost:LineItem,
  {a0f6baed-6eda-459a-9910-9034ca06e4b0}, ! Handle
  90.1-2001 Nonres B15 Ext Slab Unheated - 4in Slab without Carpet, ! Name
  ,                                       ! Type
  Construction,                           ! Line Item Type
  90.1-2001 Nonres B15 Ext Slab Unheated - 4in Slab without Carpet, ! Item Name
  ,                                       ! Object End Use Key
  ,                                       ! Quantity {dimensionless}
  45.52,                                  ! Material Cost {$}
  CostPerArea;                            ! Material Cost Units

