
OS:Version,
  {617dbb79-6ed0-4324-9915-a58990387d03}, ! Handle
  0.9.3;                                  ! Version Identifier

OS:Material,
  {48449a7e-2a87-4847-8a8f-b7a37b50a345}, ! Handle
  MAT-CC05 8 HW CONCRETE,                 ! Name
  Rough,                                  ! Roughness
  0.20321,                                ! Thickness {m}
  1.311,                                  ! Conductivity {W/m-K}
  2240,                                   ! Density {kg/m3}
  836.8,                                  ! Specific Heat {J/kg-K}
  0.9,                                    ! Thermal Absorptance
  0.7,                                    ! Solar Absorptance
  0.7;                                    ! Visible Absorptance

OS:Construction,
  {36f6afb8-bcd4-411c-9f88-943437e31eef}, ! Handle
  90.1-2004 Res 5B Ext Slab Unheated - 8in Slab without Carpet, ! Name
  ,                                       ! Surface Rendering Name
  {48449a7e-2a87-4847-8a8f-b7a37b50a345}; ! Layer 1

OS:ComponentCost:LineItem,
  {64588030-7ba2-4696-a8c5-faa8f2b065ca}, ! Handle
  90.1-2004 Res 5B Ext Slab Unheated - 8in Slab without Carpet, ! Name
  ,                                       ! Type
  Construction,                           ! Line Item Type
  90.1-2004 Res 5B Ext Slab Unheated - 8in Slab without Carpet, ! Item Name
  ,                                       ! Object End Use Key
  ,                                       ! Quantity {dimensionless}
  45.52,                                  ! Material Cost {$}
  CostPerArea;                            ! Material Cost Units

