
OS:Version,
  {eebe1797-1847-45c1-a0d4-c2793729e8bf}, ! Handle
  0.9.3;                                  ! Version Identifier

OS:Material,
  {f6f5e585-eef4-46d8-87c8-1f8d0b5363d0}, ! Handle
  Wood Siding,                            ! Name
  MediumSmooth,                           ! Roughness
  0.01,                                   ! Thickness {m}
  0.11,                                   ! Conductivity {W/m-K}
  544.62,                                 ! Density {kg/m3}
  1210,                                   ! Specific Heat {J/kg-K}
  0.9,                                    ! Thermal Absorptance
  0.78,                                   ! Solar Absorptance
  0.78;                                   ! Visible Absorptance

OS:Material,
  {2fe8859e-a00e-4765-8d73-1175f214f1c2}, ! Handle
  1/2IN Gypsum,                           ! Name
  Smooth,                                 ! Roughness
  0.01271,                                ! Thickness {m}
  0.16,                                   ! Conductivity {W/m-K}
  784.9,                                  ! Density {kg/m3}
  830,                                    ! Specific Heat {J/kg-K}
  0.9,                                    ! Thermal Absorptance
  0.92,                                   ! Solar Absorptance
  0.92;                                   ! Visible Absorptance

OS:Construction,
  {9d46f635-3b60-4eb2-9b53-df0fa3af1f0e}, ! Handle
  90.1-2004 Res 3C Ext Wall Wood-Framed and Other, ! Name
  ,                                       ! Surface Rendering Name
  {f6f5e585-eef4-46d8-87c8-1f8d0b5363d0}, ! Layer 1
  {7ce24ea7-9f9c-4168-991b-dba6bea87974}, ! Layer 2
  {2fe8859e-a00e-4765-8d73-1175f214f1c2}; ! Layer 3

OS:Material,
  {7ce24ea7-9f9c-4168-991b-dba6bea87974}, ! Handle
  Wall Insulation [2],                    ! Name
  MediumRough,                            ! Roughness
  0.0746874,                              ! Thickness {m}
  0.045,                                  ! Conductivity {W/m-K}
  265,                                    ! Density {kg/m3}
  836.8,                                  ! Specific Heat {J/kg-K}
  0.9,                                    ! Thermal Absorptance
  0.7,                                    ! Solar Absorptance
  0.7;                                    ! Visible Absorptance

OS:ComponentCost:LineItem,
  {87a23023-374f-4e7a-9ead-8ae24955e023}, ! Handle
  90.1-2004 Res 3C Ext Wall Wood-Framed and Other, ! Name
  ,                                       ! Type
  Construction,                           ! Line Item Type
  90.1-2004 Res 3C Ext Wall Wood-Framed and Other, ! Item Name
  ,                                       ! Object End Use Key
  ,                                       ! Quantity {dimensionless}
  73.056,                                 ! Material Cost {$}
  CostPerArea;                            ! Material Cost Units

