
OS:Version,
  {ae1337da-2966-4493-ba7a-0fe40706db4c}, !- Handle
  1.1.0;                                  !- Version Identifier

OS:Construction,
  {e14f9bf2-8ac8-430c-a822-e6e9bf5598b5}, !- Handle
  Dbl Blue 6mm/13mm Air,                  !- Name
  ,                                       !- Surface Rendering Name
  {4379a459-3fb0-4b5a-822c-b8cac63bb265}, !- Layer 1
  {f4fc7e83-7e96-4a0d-9801-b15a54c06ad6}, !- Layer 2
  {c30558f4-8012-429d-9db9-6e9135f35488}; !- Layer 3

OS:WindowMaterial:Glazing,
  {4379a459-3fb0-4b5a-822c-b8cac63bb265}, !- Handle
  BLUE 6MM,                               !- Name
  SpectralAverage,                        !- Optical Data Type
  ,                                       !- Window Glass Spectral Data Set Name
  0.006,                                  !- Thickness {m}
  0.48,                                   !- Solar Transmittance at Normal Incidence
  0.05,                                   !- Front Side Solar Reflectance at Normal Incidence
  0.05,                                   !- Back Side Solar Reflectance at Normal Incidence
  0.57,                                   !- Visible Transmittance at Normal Incidence
  0.06,                                   !- Front Side Visible Reflectance at Normal Incidence
  0.06,                                   !- Back Side Visible Reflectance at Normal Incidence
  0,                                      !- Infrared Transmittance at Normal Incidence
  0.84,                                   !- Front Side Infrared Hemispherical Emissivity
  0.84,                                   !- Back Side Infrared Hemispherical Emissivity
  0.9;                                    !- Conductivity {W/m-K}

OS:WindowMaterial:Gas,
  {f4fc7e83-7e96-4a0d-9801-b15a54c06ad6}, !- Handle
  AIR 13MM,                               !- Name
  Air,                                    !- Gas Type
  0.0127;                                 !- Thickness {m}

OS:WindowMaterial:Glazing,
  {c30558f4-8012-429d-9db9-6e9135f35488}, !- Handle
  CLEAR 6MM,                              !- Name
  SpectralAverage,                        !- Optical Data Type
  ,                                       !- Window Glass Spectral Data Set Name
  0.006,                                  !- Thickness {m}
  0.775,                                  !- Solar Transmittance at Normal Incidence
  0.071,                                  !- Front Side Solar Reflectance at Normal Incidence
  0.071,                                  !- Back Side Solar Reflectance at Normal Incidence
  0.881,                                  !- Visible Transmittance at Normal Incidence
  0.08,                                   !- Front Side Visible Reflectance at Normal Incidence
  0.08,                                   !- Back Side Visible Reflectance at Normal Incidence
  0,                                      !- Infrared Transmittance at Normal Incidence
  0.84,                                   !- Front Side Infrared Hemispherical Emissivity
  0.84,                                   !- Back Side Infrared Hemispherical Emissivity
  0.9;                                    !- Conductivity {W/m-K}

