
OS:Version,
  {5bad7cf6-f7a4-4131-9ed3-d0bd4713c0d0}, !- Handle
  1.0.6;                                  !- Version Identifier

OS:WindowMaterial:Glazing,
  {e8b6f009-edb7-4ce0-b763-f8b5fafe9dab}, !- Handle
  189.1-2011 NONRES 5B METAL FRAMING ALL OTHER THEORETICAL GLAZING, !- Name
  SpectralAverage,                        !- Optical Data Type
  ,                                       !- Window Glass Spectral Data Set Name
  0.02657,                                !- Thickness {m}
  0.26293,                                !- Solar Transmittance at Normal Incidence
  0.51938,                                !- Front Side Solar Reflectance at Normal Incidence
  0.51938,                                !- Back Side Solar Reflectance at Normal Incidence
  0.26293,                                !- Visible Transmittance at Normal Incidence
  0.51938,                                !- Front Side Visible Reflectance at Normal Incidence
  0.51938,                                !- Back Side Visible Reflectance at Normal Incidence
  0,                                      !- Infrared Transmittance at Normal Incidence
  0.84,                                   !- Front Side Infrared Hemispherical Emissivity
  0.84,                                   !- Back Side Infrared Hemispherical Emissivity
  0.1212,                                 !- Conductivity {W/m-K}
  1,                                      !- Dirt Correction Factor for Solar and Visible Transmittance
  No;                                     !- Solar Diffusing

OS:Construction,
  {12b0665f-fac6-4309-8d1a-a595420dac4b}, !- Handle
  189.1-2011 NONRES 5B METAL FRAMING ALL OTHER, !- Name
  ,                                       !- Surface Rendering Name
  {e8b6f009-edb7-4ce0-b763-f8b5fafe9dab}; !- Layer 1

