
OS:Version,
  {aaaea963-67f6-4516-be76-da3ee88cbae7}, !- Handle
  1.0.6;                                  !- Version Identifier

OS:Construction,
  {04bceb5b-c13d-4e86-adc6-44e278440c49}, !- Handle
  189.1-2011 NONRES 5B METAL FRAMING ALL OTHER, !- Name
  ,                                       !- Surface Rendering Name
  {03e1ec2d-eb55-40b4-9dad-fe9c5d373f2c}; !- Layer 1

OS:WindowMaterial:Glazing,
  {03e1ec2d-eb55-40b4-9dad-fe9c5d373f2c}, !- Handle
  189.1-2011 NONRES 5B METAL FRAMING ALL OTHER THEORETICAL GLAZING, !- Name
  SpectralAverage,                        !- Optical Data Type
  ,                                       !- Window Glass Spectral Data Set Name
  0.02657,                                !- Thickness {m}
  0.26293,                                !- Solar Transmittance at Normal Incidence
  0.51938,                                !- Front Side Solar Reflectance at Normal Incidence
  0.51938,                                !- Back Side Solar Reflectance at Normal Incidence
  0.26293,                                !- Visible Transmittance at Normal Incidence
  0.51938,                                !- Front Side Visible Reflectance at Normal Incidence
  0.51938,                                !- Back Side Visible Reflectance at Normal Incidence
  0,                                      !- Infrared Transmittance at Normal Incidence
  0.84,                                   !- Front Side Infrared Hemispherical Emissivity
  0.84,                                   !- Back Side Infrared Hemispherical Emissivity
  0.1212,                                 !- Conductivity {W/m-K}
  1,                                      !- Dirt Correction Factor for Solar and Visible Transmittance
  No;                                     !- Solar Diffusing

OS:ComponentData,
  {87ef481b-0961-4b7b-9aed-e9552aadb2ca}, !- Handle
  Component Data 1,                       !- Name
  {1590ece7-dcc6-41d6-a7d2-30328f4d49fb}, !- UUID
  {f1fe4f34-7cd0-414c-b7f9-b70af1d6339f}, !- Version UUID
  1380911254,                             !- Creation Timestamp
  1380911254,                             !- Version Timestamp
  {04bceb5b-c13d-4e86-adc6-44e278440c49}, !- Name of Object 1
  {03e1ec2d-eb55-40b4-9dad-fe9c5d373f2c}; !- Name of Object 2

