
OS:Version,
  {c231e5a8-cab2-439c-8491-8315ecf7a585}, ! Handle
  0.9.3;                                  ! Version Identifier

OS:Material:NoMass,
  {b98d2bed-01ad-4c98-becb-a7618d5646b9}, ! Handle
  CP02 CARPET PAD,                        ! Name
  VeryRough,                              ! Roughness
  0.21648,                                ! Thermal Resistance {m2-K/W}
  0.9,                                    ! Thermal Absorptance
  0.7,                                    ! Solar Absorptance
  0.8;                                    ! Visible Absorptance

OS:ComponentCost:LineItem,
  {e7b7a506-deec-4c8d-96c8-ed0b564dff3c}, ! Handle
  90.1-1999 Nonres B17 Ext Slab Unheated - 4in Slab with Carpet, ! Name
  ,                                       ! Type
  Construction,                           ! Line Item Type
  90.1-1999 Nonres B17 Ext Slab Unheated - 4in Slab with Carpet, ! Item Name
  ,                                       ! Object End Use Key
  ,                                       ! Quantity {dimensionless}
  45.52,                                  ! Material Cost {$}
  CostPerArea;                            ! Material Cost Units

OS:Material,
  {91944d7a-8802-4dcd-8adc-71ab61980e93}, ! Handle
  MAT-CC05 4 HW CONCRETE,                 ! Name
  Rough,                                  ! Roughness
  0.1016,                                 ! Thickness {m}
  1.311,                                  ! Conductivity {W/m-K}
  2240,                                   ! Density {kg/m3}
  836.8,                                  ! Specific Heat {J/kg-K}
  0.9,                                    ! Thermal Absorptance
  0.7,                                    ! Solar Absorptance
  0.7;                                    ! Visible Absorptance

OS:Construction,
  {73778ad5-fd73-45e5-83c3-b9c66bfbb348}, ! Handle
  90.1-1999 Nonres B17 Ext Slab Unheated - 4in Slab with Carpet, ! Name
  ,                                       ! Surface Rendering Name
  {91944d7a-8802-4dcd-8adc-71ab61980e93}, ! Layer 1
  {b98d2bed-01ad-4c98-becb-a7618d5646b9}; ! Layer 2

