
OS:Version,
  {845f53a7-5188-4772-a96d-7843d6cb8538}, ! Handle
  0.9.3;                                  ! Version Identifier

OS:Construction,
  {d5827d38-40d5-47ff-a99f-7e95436749a4}, ! Handle
  90.1-1999 Nonres B16 Ext Slab Unheated - 8in Slab with Carpet, ! Name
  ,                                       ! Surface Rendering Name
  {8c68d740-8cf7-4c3f-8260-8105784a23da}, ! Layer 1
  {a5fd1f96-89d4-42c9-80a9-bf2ab39392c4}; ! Layer 2

OS:Material,
  {8c68d740-8cf7-4c3f-8260-8105784a23da}, ! Handle
  MAT-CC05 8 HW CONCRETE,                 ! Name
  Rough,                                  ! Roughness
  0.20321,                                ! Thickness {m}
  1.311,                                  ! Conductivity {W/m-K}
  2240,                                   ! Density {kg/m3}
  836.8,                                  ! Specific Heat {J/kg-K}
  0.9,                                    ! Thermal Absorptance
  0.7,                                    ! Solar Absorptance
  0.7;                                    ! Visible Absorptance

OS:Material:NoMass,
  {a5fd1f96-89d4-42c9-80a9-bf2ab39392c4}, ! Handle
  CP02 CARPET PAD,                        ! Name
  VeryRough,                              ! Roughness
  0.21648,                                ! Thermal Resistance {m2-K/W}
  0.9,                                    ! Thermal Absorptance
  0.7,                                    ! Solar Absorptance
  0.8;                                    ! Visible Absorptance

OS:ComponentCost:LineItem,
  {0097c64c-7de8-4954-976b-313d8df4c5c4}, ! Handle
  90.1-1999 Nonres B16 Ext Slab Unheated - 8in Slab with Carpet, ! Name
  ,                                       ! Type
  Construction,                           ! Line Item Type
  90.1-1999 Nonres B16 Ext Slab Unheated - 8in Slab with Carpet, ! Item Name
  ,                                       ! Object End Use Key
  ,                                       ! Quantity {dimensionless}
  45.52,                                  ! Material Cost {$}
  CostPerArea;                            ! Material Cost Units

