
OS:Version,
  {049f0179-4270-42b0-85cb-4c73c753a2b7}, ! Handle
  0.9.3;                                  ! Version Identifier

OS:ComponentCost:LineItem,
  {d9895b3c-1377-4f50-83f3-2ceaa7f43c9e}, ! Handle
  90.1-1999 Res B17 Roof Attic and Other, ! Name
  ,                                       ! Type
  Construction,                           ! Line Item Type
  90.1-1999 Res B17 Roof Attic and Other, ! Item Name
  ,                                       ! Object End Use Key
  ,                                       ! Quantity {dimensionless}
  34.757,                                 ! Material Cost {$}
  CostPerArea;                            ! Material Cost Units

OS:Material,
  {70bea3e4-f144-46b4-abdc-4b4ce3a2aacc}, ! Handle
  Roof Insulation [5],                    ! Name
  MediumRough,                            ! Roughness
  0.286906,                               ! Thickness {m}
  0.049,                                  ! Conductivity {W/m-K}
  265,                                    ! Density {kg/m3}
  836.8,                                  ! Specific Heat {J/kg-K}
  0.9,                                    ! Thermal Absorptance
  0.7,                                    ! Solar Absorptance
  0.7;                                    ! Visible Absorptance

OS:Material,
  {02c74f96-9eba-4c3d-871f-d995da96d51c}, ! Handle
  Wood Shingles,                          ! Name
  VeryRough,                              ! Roughness
  0.0178,                                 ! Thickness {m}
  0.115,                                  ! Conductivity {W/m-K}
  513,                                    ! Density {kg/m3}
  1255,                                   ! Specific Heat {J/kg-K}
  0.9,                                    ! Thermal Absorptance
  0.78,                                   ! Solar Absorptance
  0.78;                                   ! Visible Absorptance

OS:Material,
  {b6992ac5-bc69-4798-a15d-46228a85851b}, ! Handle
  1/2IN Gypsum,                           ! Name
  Smooth,                                 ! Roughness
  0.01271,                                ! Thickness {m}
  0.16,                                   ! Conductivity {W/m-K}
  784.9,                                  ! Density {kg/m3}
  830,                                    ! Specific Heat {J/kg-K}
  0.9,                                    ! Thermal Absorptance
  0.92,                                   ! Solar Absorptance
  0.92;                                   ! Visible Absorptance

OS:Construction,
  {4e49a8a4-49ff-4b31-9914-63e1fc7428ea}, ! Handle
  90.1-1999 Res B17 Roof Attic and Other, ! Name
  ,                                       ! Surface Rendering Name
  {02c74f96-9eba-4c3d-871f-d995da96d51c}, ! Layer 1
  {ab8f61da-7076-4dbb-9c87-283f53d053e8}, ! Layer 2
  {70bea3e4-f144-46b4-abdc-4b4ce3a2aacc}, ! Layer 3
  {b6992ac5-bc69-4798-a15d-46228a85851b}; ! Layer 4

OS:Material,
  {ab8f61da-7076-4dbb-9c87-283f53d053e8}, ! Handle
  1IN Wood Decking,                       ! Name
  MediumSmooth,                           ! Roughness
  0.0254,                                 ! Thickness {m}
  0.1211,                                 ! Conductivity {W/m-K}
  593,                                    ! Density {kg/m3}
  2510,                                   ! Specific Heat {J/kg-K}
  0.9,                                    ! Thermal Absorptance
  0.78,                                   ! Solar Absorptance
  0.78;                                   ! Visible Absorptance

