
OS:Version,
  {c961d3e9-e725-4260-ba0c-817e69feafcc}, ! Handle
  0.9.3;                                  ! Version Identifier

OS:Construction,
  {23c71f6b-125b-472a-8bc7-49aa23800e97}, ! Handle
  Title 24-2008 Nonres 12 Skylight Plastic Skylight with Curb, ! Name
  ,                                       ! Surface Rendering Name
  {9821434b-e8e7-4eed-b2c6-712f5a3ffbd5}; ! Layer 1

OS:WindowMaterial:Glazing,
  {9821434b-e8e7-4eed-b2c6-712f5a3ffbd5}, ! Handle
  Theoretical Glass [674],                ! Name
  SpectralAverage,                        ! Optical Data Type
  ,                                       ! Window Glass Spectral Data Set Name
  0.003,                                  ! Thickness {m}
  0.676633,                               ! Solar Transmittance at Normal Incidence
  0.273367,                               ! Front Side Solar Reflectance at Normal Incidence
  0.273367,                               ! Back Side Solar Reflectance at Normal Incidence
  0.689609,                               ! Visible Transmittance at Normal Incidence
  0.260391,                               ! Front Side Visible Reflectance at Normal Incidence
  0.260391,                               ! Back Side Visible Reflectance at Normal Incidence
  0,                                      ! Infrared Transmittance at Normal Incidence
  0.91,                                   ! Front Side Infrared Hemispherical Emissivity
  0.91,                                   ! Back Side Infrared Hemispherical Emissivity
  0.387053;                               ! Conductivity {W/m-K}

OS:ComponentCost:LineItem,
  {a2d01fa0-7557-4264-b5e1-c4cbeb766cf1}, ! Handle
  Title 24-2008 Nonres 12 Skylight Plastic Skylight with Curb, ! Name
  ,                                       ! Type
  Construction,                           ! Line Item Type
  Title 24-2008 Nonres 12 Skylight Plastic Skylight with Curb, ! Item Name
  ,                                       ! Object End Use Key
  ,                                       ! Quantity {dimensionless}
  480.601,                                ! Material Cost {$}
  CostPerArea;                            ! Material Cost Units

