
OS:Version,
  {e14685a2-bccd-4928-8fff-16e1dafe474b}, ! Handle
  0.9.3;                                  ! Version Identifier

OS:Construction,
  {37292d6f-fbce-4c90-8fc3-0779818dfe48}, ! Handle
  90.1-2004 Nonres 8A Ext Slab Unheated - 8in Slab without Carpet, ! Name
  ,                                       ! Surface Rendering Name
  {38dc24cf-a148-4bf6-ad8b-9aa8c628127a}; ! Layer 1

OS:Material,
  {38dc24cf-a148-4bf6-ad8b-9aa8c628127a}, ! Handle
  MAT-CC05 8 HW CONCRETE,                 ! Name
  Rough,                                  ! Roughness
  0.20321,                                ! Thickness {m}
  1.311,                                  ! Conductivity {W/m-K}
  2240,                                   ! Density {kg/m3}
  836.8,                                  ! Specific Heat {J/kg-K}
  0.9,                                    ! Thermal Absorptance
  0.7,                                    ! Solar Absorptance
  0.7;                                    ! Visible Absorptance

OS:ComponentCost:LineItem,
  {76c67707-468d-420b-9687-df2fa5d84717}, ! Handle
  90.1-2004 Nonres 8A Ext Slab Unheated - 8in Slab without Carpet, ! Name
  ,                                       ! Type
  Construction,                           ! Line Item Type
  90.1-2004 Nonres 8A Ext Slab Unheated - 8in Slab without Carpet, ! Item Name
  ,                                       ! Object End Use Key
  ,                                       ! Quantity {dimensionless}
  45.52,                                  ! Material Cost {$}
  CostPerArea;                            ! Material Cost Units

OS:ComponentData,
  {2fe51c6b-bd7e-41e6-8801-d09463a2aa8c}, ! Handle
  Component Data 1,                       ! Name
  {bbb9c39c-d674-4231-8b67-603cbbd68f2c}, ! UUID
  {efea4c90-778b-4588-86ed-bb299e5b1ab6}, ! Version UUID
  1363981702,                             ! Creation Timestamp
  1363981702,                             ! Version Timestamp
  {37292d6f-fbce-4c90-8fc3-0779818dfe48}, ! Name of Object 1
  {38dc24cf-a148-4bf6-ad8b-9aa8c628127a}, ! Name of Object 2
  {76c67707-468d-420b-9687-df2fa5d84717}; ! Name of Object 3

