
OS:Version,
  {c7dd49af-9750-4ff1-ac77-5491d1842c76}, ! Handle
  0.9.3;                                  ! Version Identifier

OS:Construction,
  {7afcf84e-e51d-4bd4-87a6-ba4125bb61a8}, ! Handle
  Title 24-2008 Nonres 15 Skylight Plastic Skylight with Curb, ! Name
  ,                                       ! Surface Rendering Name
  {fd0ed631-ef25-4fcd-ba3a-815903daaa7f}; ! Layer 1

OS:WindowMaterial:Glazing,
  {fd0ed631-ef25-4fcd-ba3a-815903daaa7f}, ! Handle
  Theoretical Glass [674],                ! Name
  SpectralAverage,                        ! Optical Data Type
  ,                                       ! Window Glass Spectral Data Set Name
  0.003,                                  ! Thickness {m}
  0.676633,                               ! Solar Transmittance at Normal Incidence
  0.273367,                               ! Front Side Solar Reflectance at Normal Incidence
  0.273367,                               ! Back Side Solar Reflectance at Normal Incidence
  0.689609,                               ! Visible Transmittance at Normal Incidence
  0.260391,                               ! Front Side Visible Reflectance at Normal Incidence
  0.260391,                               ! Back Side Visible Reflectance at Normal Incidence
  0,                                      ! Infrared Transmittance at Normal Incidence
  0.91,                                   ! Front Side Infrared Hemispherical Emissivity
  0.91,                                   ! Back Side Infrared Hemispherical Emissivity
  0.387053;                               ! Conductivity {W/m-K}

OS:ComponentCost:LineItem,
  {f0cca42e-5219-41aa-a522-2365e017cba5}, ! Handle
  Title 24-2008 Nonres 15 Skylight Plastic Skylight with Curb, ! Name
  ,                                       ! Type
  Construction,                           ! Line Item Type
  Title 24-2008 Nonres 15 Skylight Plastic Skylight with Curb, ! Item Name
  ,                                       ! Object End Use Key
  ,                                       ! Quantity {dimensionless}
  480.601,                                ! Material Cost {$}
  CostPerArea;                            ! Material Cost Units

