
OS:Version,
  {7f24dfc5-37c5-40af-93ca-2b386fcf26bc}, ! Handle
  0.9.3;                                  ! Version Identifier

OS:Construction,
  {c6df1cd0-0486-4b06-8abd-4c89a2c4e1ec}, ! Handle
  90.1-2004 Nonres 1A Attic Floor,        ! Name
  ,                                       ! Surface Rendering Name
  {d39df70c-f16b-4862-ba46-363fb793d476}, ! Layer 1
  {88226e83-e976-4c46-98a6-052a8efa0e58}, ! Layer 2
  {a28fa942-7b2c-4984-ad69-50db7f46aa35}; ! Layer 3

OS:Material,
  {d39df70c-f16b-4862-ba46-363fb793d476}, ! Handle
  1/2IN Gypsum Top,                       ! Name
  Smooth,                                 ! Roughness
  0.01271,                                ! Thickness {m}
  0.16,                                   ! Conductivity {W/m-K}
  784.9,                                  ! Density {kg/m3}
  830,                                    ! Specific Heat {J/kg-K}
  0.9,                                    ! Thermal Absorptance
  0.92,                                   ! Solar Absorptance
  0.92;                                   ! Visible Absorptance

OS:Material,
  {88226e83-e976-4c46-98a6-052a8efa0e58}, ! Handle
  AtticFloor Insulation,                  ! Name
  MediumRough,                            ! Roughness
  0.237853,                               ! Thickness {m}
  0.049,                                  ! Conductivity {W/m-K}
  265,                                    ! Density {kg/m3}
  836.8,                                  ! Specific Heat {J/kg-K}
  0.9,                                    ! Thermal Absorptance
  0.7,                                    ! Solar Absorptance
  0.7;                                    ! Visible Absorptance

OS:Material,
  {a28fa942-7b2c-4984-ad69-50db7f46aa35}, ! Handle
  1/2IN Gypsum Bottom,                    ! Name
  Smooth,                                 ! Roughness
  0.01271,                                ! Thickness {m}
  0.16,                                   ! Conductivity {W/m-K}
  784.9,                                  ! Density {kg/m3}
  830,                                    ! Specific Heat {J/kg-K}
  0.9,                                    ! Thermal Absorptance
  0.92,                                   ! Solar Absorptance
  0.92;                                   ! Visible Absorptance

OS:ComponentCost:LineItem,
  {9dc53082-e5c6-43c7-b0e4-e3b77a1af036}, ! Handle
  90.1-2004 Nonres 1A Attic Floor,        ! Name
  ,                                       ! Type
  Construction,                           ! Line Item Type
  90.1-2004 Nonres 1A Attic Floor,        ! Item Name
  ,                                       ! Object End Use Key
  ,                                       ! Quantity {dimensionless}
  33.596,                                 ! Material Cost {$}
  CostPerArea;                            ! Material Cost Units

OS:ComponentData,
  {a9abec2c-6350-4033-9d3d-2f4558b6bfcf}, ! Handle
  Component Data 1,                       ! Name
  {e1d59914-b40b-49c4-aae8-56e32ad0df1b}, ! UUID
  {bd27fe9f-3180-4f63-aa11-414005986d58}, ! Version UUID
  1363981628,                             ! Creation Timestamp
  1363981628,                             ! Version Timestamp
  {c6df1cd0-0486-4b06-8abd-4c89a2c4e1ec}, ! Name of Object 1
  {d39df70c-f16b-4862-ba46-363fb793d476}, ! Name of Object 2
  {88226e83-e976-4c46-98a6-052a8efa0e58}, ! Name of Object 3
  {a28fa942-7b2c-4984-ad69-50db7f46aa35}, ! Name of Object 4
  {9dc53082-e5c6-43c7-b0e4-e3b77a1af036}; ! Name of Object 5

