
OS:Version,
  {a431377c-e967-40e0-9e7c-71487120c4b6}, ! Handle
  0.9.3;                                  ! Version Identifier

OS:Construction,
  {1b825b98-ae4e-4c09-855c-85bdc26ec84f}, ! Handle
  90.1-2001 Res B14 Roof Metal Building,  ! Name
  ,                                       ! Surface Rendering Name
  {256b0fff-35ff-452d-924e-5aee98b4d7da}, ! Layer 1
  {ba8f4c25-62a0-41e9-8423-58680456c127}; ! Layer 2

OS:Material,
  {256b0fff-35ff-452d-924e-5aee98b4d7da}, ! Handle
  Metal Roofing,                          ! Name
  MediumSmooth,                           ! Roughness
  0.001524,                               ! Thickness {m}
  45.006,                                 ! Conductivity {W/m-K}
  7680,                                   ! Density {kg/m3}
  418.4,                                  ! Specific Heat {J/kg-K}
  0.9,                                    ! Thermal Absorptance
  0.7,                                    ! Solar Absorptance
  0.3;                                    ! Visible Absorptance

OS:Material,
  {ba8f4c25-62a0-41e9-8423-58680456c127}, ! Handle
  Roof Insulation [1],                    ! Name
  MediumRough,                            ! Roughness
  0.123533,                               ! Thickness {m}
  0.049,                                  ! Conductivity {W/m-K}
  265,                                    ! Density {kg/m3}
  836.8,                                  ! Specific Heat {J/kg-K}
  0.9,                                    ! Thermal Absorptance
  0.7,                                    ! Solar Absorptance
  0.7;                                    ! Visible Absorptance

OS:ComponentCost:LineItem,
  {b8bc7134-fc50-499a-9589-d36fcd2ace4e}, ! Handle
  90.1-2001 Res B14 Roof Metal Building,  ! Name
  ,                                       ! Type
  Construction,                           ! Line Item Type
  90.1-2001 Res B14 Roof Metal Building,  ! Item Name
  ,                                       ! Object End Use Key
  ,                                       ! Quantity {dimensionless}
  38.206,                                 ! Material Cost {$}
  CostPerArea;                            ! Material Cost Units

OS:ComponentData,
  {774bf39f-3965-4d87-bc9a-80752b8204eb}, ! Handle
  Component Data 1,                       ! Name
  {c8b0b46c-4d4e-41a1-9a64-e92a8f609dc0}, ! UUID
  {8a60e465-4039-495e-8a53-3f3d72a9f2e2}, ! Version UUID
  1363981527,                             ! Creation Timestamp
  1363981527,                             ! Version Timestamp
  {1b825b98-ae4e-4c09-855c-85bdc26ec84f}, ! Name of Object 1
  {256b0fff-35ff-452d-924e-5aee98b4d7da}, ! Name of Object 2
  {ba8f4c25-62a0-41e9-8423-58680456c127}, ! Name of Object 3
  {b8bc7134-fc50-499a-9589-d36fcd2ace4e}; ! Name of Object 4

