
OS:Version,
  {b0a97f58-c1ff-46ee-b343-21b8980caf5b}, ! Handle
  0.9.3;                                  ! Version Identifier

OS:Material,
  {e95fde31-5e36-45c1-8f0e-3ae1c548f3ad}, ! Handle
  Roof Insulation [1],                    ! Name
  MediumRough,                            ! Roughness
  0.123533,                               ! Thickness {m}
  0.049,                                  ! Conductivity {W/m-K}
  265,                                    ! Density {kg/m3}
  836.8,                                  ! Specific Heat {J/kg-K}
  0.9,                                    ! Thermal Absorptance
  0.7,                                    ! Solar Absorptance
  0.7;                                    ! Visible Absorptance

OS:ComponentCost:LineItem,
  {8c424b71-b77a-41fc-9220-633770f94430}, ! Handle
  90.1-2001 Res B14 Roof Metal Building,  ! Name
  ,                                       ! Type
  Construction,                           ! Line Item Type
  90.1-2001 Res B14 Roof Metal Building,  ! Item Name
  ,                                       ! Object End Use Key
  ,                                       ! Quantity {dimensionless}
  38.206,                                 ! Material Cost {$}
  CostPerArea;                            ! Material Cost Units

OS:Construction,
  {fb05235d-b3df-4fea-8a65-53fc0d5ccee8}, ! Handle
  90.1-2001 Res B14 Roof Metal Building,  ! Name
  ,                                       ! Surface Rendering Name
  {b59c94e5-3d79-4e6c-9c63-0de27a245a05}, ! Layer 1
  {e95fde31-5e36-45c1-8f0e-3ae1c548f3ad}; ! Layer 2

OS:Material,
  {b59c94e5-3d79-4e6c-9c63-0de27a245a05}, ! Handle
  Metal Roofing,                          ! Name
  MediumSmooth,                           ! Roughness
  0.001524,                               ! Thickness {m}
  45.006,                                 ! Conductivity {W/m-K}
  7680,                                   ! Density {kg/m3}
  418.4,                                  ! Specific Heat {J/kg-K}
  0.9,                                    ! Thermal Absorptance
  0.7,                                    ! Solar Absorptance
  0.3;                                    ! Visible Absorptance

