
OS:Version,
  {47fb5158-8f05-4589-9957-11c0356ddd43}, ! Handle
  0.9.3;                                  ! Version Identifier

OS:ComponentCost:LineItem,
  {121b4674-8f42-462e-ad9a-91a51e0db1f2}, ! Handle
  90.1 Windows Window Fixed 2523 Vnl-Hpt-Std-ClrPye, ! Name
  ,                                       ! Type
  Construction,                           ! Line Item Type
  90.1 Windows Window Fixed 2523 Vnl-Hpt-Std-ClrPye, ! Item Name
  ,                                       ! Object End Use Key
  ,                                       ! Quantity {dimensionless}
  0,                                      ! Material Cost {$}
  CostPerArea;                            ! Material Cost Units

OS:Construction,
  {e63ebb0f-e1e0-4acd-a3bf-dc24edbb52d1}, ! Handle
  90.1 Windows Window Fixed 2523 Vnl-Hpt-Std-ClrPye, ! Name
  ,                                       ! Surface Rendering Name
  {d07e8c7b-9c6d-4901-b29b-7a4a43ba2115}; ! Layer 1

OS:WindowMaterial:Glazing,
  {d07e8c7b-9c6d-4901-b29b-7a4a43ba2115}, ! Handle
  Theoretical Glass [434],                ! Name
  SpectralAverage,                        ! Optical Data Type
  ,                                       ! Window Glass Spectral Data Set Name
  0.003,                                  ! Thickness {m}
  0.315861,                               ! Solar Transmittance at Normal Incidence
  0.634139,                               ! Front Side Solar Reflectance at Normal Incidence
  0.634139,                               ! Back Side Solar Reflectance at Normal Incidence
  0.479911,                               ! Visible Transmittance at Normal Incidence
  0.470089,                               ! Front Side Visible Reflectance at Normal Incidence
  0.470089,                               ! Back Side Visible Reflectance at Normal Incidence
  0,                                      ! Infrared Transmittance at Normal Incidence
  0.9,                                    ! Front Side Infrared Hemispherical Emissivity
  0.9,                                    ! Back Side Infrared Hemispherical Emissivity
  0.010358;                               ! Conductivity {W/m-K}

