
OS:Version,
  {e2c85962-d0e7-4f65-a588-44ebb43bb190}, ! Handle
  0.9.3;                                  ! Version Identifier

OS:Material:NoMass,
  {b896a27f-0e59-47bd-a245-f9f3174bf42b}, ! Handle
  CP02 CARPET PAD,                        ! Name
  VeryRough,                              ! Roughness
  0.21648,                                ! Thermal Resistance {m2-K/W}
  0.9,                                    ! Thermal Absorptance
  0.7,                                    ! Solar Absorptance
  0.8;                                    ! Visible Absorptance

OS:Construction,
  {570e693e-108e-467e-beff-17e5ab30240d}, ! Handle
  Title 24-2008 Nonres 12 Ext Slab Unheated - 4in Slab with Carpet, ! Name
  ,                                       ! Surface Rendering Name
  {5dd7c902-b45f-4980-8a82-17dd3eae8f16}, ! Layer 1
  {b896a27f-0e59-47bd-a245-f9f3174bf42b}; ! Layer 2

OS:Material,
  {5dd7c902-b45f-4980-8a82-17dd3eae8f16}, ! Handle
  MAT-CC05 4 HW CONCRETE,                 ! Name
  Rough,                                  ! Roughness
  0.1016,                                 ! Thickness {m}
  1.311,                                  ! Conductivity {W/m-K}
  2240,                                   ! Density {kg/m3}
  836.8,                                  ! Specific Heat {J/kg-K}
  0.9,                                    ! Thermal Absorptance
  0.7,                                    ! Solar Absorptance
  0.7;                                    ! Visible Absorptance

OS:ComponentCost:LineItem,
  {d9a279ea-e1d3-472e-b6d4-0d3045377361}, ! Handle
  Title 24-2008 Nonres 12 Ext Slab Unheated - 4in Slab with Carpet, ! Name
  ,                                       ! Type
  Construction,                           ! Line Item Type
  Title 24-2008 Nonres 12 Ext Slab Unheated - 4in Slab with Carpet, ! Item Name
  ,                                       ! Object End Use Key
  ,                                       ! Quantity {dimensionless}
  45.52,                                  ! Material Cost {$}
  CostPerArea;                            ! Material Cost Units

