
OS:Version,
  {1fbb7489-c384-4c74-833d-c14414244ba4}, ! Handle
  0.9.3;                                  ! Version Identifier

OS:Construction,
  {36b73daf-789b-46e7-a9c6-e728fdc80b34}, ! Handle
  90.1-2007 Res 6B Window Metal framing all other, ! Name
  ,                                       ! Surface Rendering Name
  {ed4c1e48-6cb7-461d-92f3-0bfad4f18dd2}; ! Layer 1

OS:WindowMaterial:Glazing,
  {ed4c1e48-6cb7-461d-92f3-0bfad4f18dd2}, ! Handle
  Theoretical Glass [182],                ! Name
  SpectralAverage,                        ! Optical Data Type
  ,                                       ! Window Glass Spectral Data Set Name
  0.003,                                  ! Thickness {m}
  0.39333,                                ! Solar Transmittance at Normal Incidence
  0.55667,                                ! Front Side Solar Reflectance at Normal Incidence
  0.55667,                                ! Back Side Solar Reflectance at Normal Incidence
  0.507883,                               ! Visible Transmittance at Normal Incidence
  0.442117,                               ! Front Side Visible Reflectance at Normal Incidence
  0.442117,                               ! Back Side Visible Reflectance at Normal Incidence
  0,                                      ! Infrared Transmittance at Normal Incidence
  0.9,                                    ! Front Side Infrared Hemispherical Emissivity
  0.9,                                    ! Back Side Infrared Hemispherical Emissivity
  0.0185383;                              ! Conductivity {W/m-K}

OS:ComponentCost:LineItem,
  {a0e15632-7cdd-42c6-996f-c173af9fa524}, ! Handle
  90.1-2007 Res 6B Window Metal framing all other, ! Name
  ,                                       ! Type
  Construction,                           ! Line Item Type
  90.1-2007 Res 6B Window Metal framing all other, ! Item Name
  ,                                       ! Object End Use Key
  ,                                       ! Quantity {dimensionless}
  512.02,                                 ! Material Cost {$}
  CostPerArea;                            ! Material Cost Units

