
OS:Version,
  {d676f495-5b7a-4fc6-8ac8-8a5a2c282a17}, ! Handle
  0.9.3;                                  ! Version Identifier

OS:Construction,
  {360158fa-0ad8-4312-b319-875d9b98a223}, ! Handle
  90.1-1999 Nonres B16 Ext Slab Unheated - 4in Slab without Carpet, ! Name
  ,                                       ! Surface Rendering Name
  {8de0f7d4-e207-42ce-929a-ec7e7dec34c2}; ! Layer 1

OS:Material,
  {8de0f7d4-e207-42ce-929a-ec7e7dec34c2}, ! Handle
  MAT-CC05 4 HW CONCRETE,                 ! Name
  Rough,                                  ! Roughness
  0.1016,                                 ! Thickness {m}
  1.311,                                  ! Conductivity {W/m-K}
  2240,                                   ! Density {kg/m3}
  836.8,                                  ! Specific Heat {J/kg-K}
  0.9,                                    ! Thermal Absorptance
  0.7,                                    ! Solar Absorptance
  0.7;                                    ! Visible Absorptance

OS:ComponentCost:LineItem,
  {67e3b2d3-031f-43e3-8e9d-560d4ed0794c}, ! Handle
  90.1-1999 Nonres B16 Ext Slab Unheated - 4in Slab without Carpet, ! Name
  ,                                       ! Type
  Construction,                           ! Line Item Type
  90.1-1999 Nonres B16 Ext Slab Unheated - 4in Slab without Carpet, ! Item Name
  ,                                       ! Object End Use Key
  ,                                       ! Quantity {dimensionless}
  45.52,                                  ! Material Cost {$}
  CostPerArea;                            ! Material Cost Units

OS:ComponentData,
  {8505ca9d-a9cb-4e7b-8c38-17a86849e98f}, ! Handle
  Component Data 1,                       ! Name
  {f72a1a2c-3d84-4907-8294-5b3ca0acd60f}, ! UUID
  {3c777ba9-0f74-42cb-b9c7-a3fe56eae60c}, ! Version UUID
  1363981110,                             ! Creation Timestamp
  1363981110,                             ! Version Timestamp
  {360158fa-0ad8-4312-b319-875d9b98a223}, ! Name of Object 1
  {8de0f7d4-e207-42ce-929a-ec7e7dec34c2}, ! Name of Object 2
  {67e3b2d3-031f-43e3-8e9d-560d4ed0794c}; ! Name of Object 3

