
OS:Version,
  {025acbb2-87dc-4941-ad8c-aa1b260d3cd9}, ! Handle
  0.9.3;                                  ! Version Identifier

OS:Construction,
  {67d9ac73-d498-4c10-9a00-078b5de15af0}, ! Handle
  AEDG SHC Nonres 2A Ext Slab Unheated - 8in Slab with Carpet, ! Name
  ,                                       ! Surface Rendering Name
  {90c4606f-a27c-49e9-aa31-66c0f7e81197}, ! Layer 1
  {49b79a59-39b2-405c-b1e1-e2cb1c6db221}; ! Layer 2

OS:Material,
  {90c4606f-a27c-49e9-aa31-66c0f7e81197}, ! Handle
  MAT-CC05 8 HW CONCRETE,                 ! Name
  Rough,                                  ! Roughness
  0.20321,                                ! Thickness {m}
  1.311,                                  ! Conductivity {W/m-K}
  2240,                                   ! Density {kg/m3}
  836.8,                                  ! Specific Heat {J/kg-K}
  0.9,                                    ! Thermal Absorptance
  0.7,                                    ! Solar Absorptance
  0.7;                                    ! Visible Absorptance

OS:Material:NoMass,
  {49b79a59-39b2-405c-b1e1-e2cb1c6db221}, ! Handle
  CP02 CARPET PAD,                        ! Name
  VeryRough,                              ! Roughness
  0.21648,                                ! Thermal Resistance {m2-K/W}
  0.9,                                    ! Thermal Absorptance
  0.7,                                    ! Solar Absorptance
  0.8;                                    ! Visible Absorptance

OS:ComponentCost:LineItem,
  {54c0f037-d872-4dd8-abc7-88db9155d665}, ! Handle
  AEDG SHC Nonres 2A Ext Slab Unheated - 8in Slab with Carpet, ! Name
  ,                                       ! Type
  Construction,                           ! Line Item Type
  AEDG SHC Nonres 2A Ext Slab Unheated - 8in Slab with Carpet, ! Item Name
  ,                                       ! Object End Use Key
  ,                                       ! Quantity {dimensionless}
  0,                                      ! Material Cost {$}
  CostPerArea;                            ! Material Cost Units

OS:ComponentData,
  {29c9f546-e8a0-416a-8487-994de122ffc5}, ! Handle
  Component Data 1,                       ! Name
  {366ec9f0-20b3-4c9e-b947-3f363774d2a7}, ! UUID
  {86f279dd-2858-4ae8-a165-cbed0d78ae8e}, ! Version UUID
  1363981915,                             ! Creation Timestamp
  1363981915,                             ! Version Timestamp
  {67d9ac73-d498-4c10-9a00-078b5de15af0}, ! Name of Object 1
  {90c4606f-a27c-49e9-aa31-66c0f7e81197}, ! Name of Object 2
  {49b79a59-39b2-405c-b1e1-e2cb1c6db221}, ! Name of Object 3
  {54c0f037-d872-4dd8-abc7-88db9155d665}; ! Name of Object 4

