
OS:Version,
  {e1db749d-9c98-4a35-a3eb-c950702c192e}, ! Handle
  0.9.3;                                  ! Version Identifier

OS:Construction,
  {5f589a7f-a48e-426c-ab45-dc7d2e35d774}, ! Handle
  90.1-2001 Nonres B2 Int Wall,           ! Name
  ,                                       ! Surface Rendering Name
  {bc2be9ce-2e92-49ba-9103-d56f161996f2}, ! Layer 1
  {bc2be9ce-2e92-49ba-9103-d56f161996f2}; ! Layer 2

OS:Material,
  {bc2be9ce-2e92-49ba-9103-d56f161996f2}, ! Handle
  GP01 1/2 GYPSUM,                        ! Name
  Smooth,                                 ! Roughness
  0.01271,                                ! Thickness {m}
  0.16,                                   ! Conductivity {W/m-K}
  800,                                    ! Density {kg/m3}
  1090,                                   ! Specific Heat {J/kg-K}
  0.9,                                    ! Thermal Absorptance
  0.7,                                    ! Solar Absorptance
  0.5;                                    ! Visible Absorptance

OS:ComponentCost:LineItem,
  {b3e78766-4201-485d-a2f3-28c94a6dc46c}, ! Handle
  90.1-2001 Nonres B2 Int Wall,           ! Name
  ,                                       ! Type
  Construction,                           ! Line Item Type
  90.1-2001 Nonres B2 Int Wall,           ! Item Name
  ,                                       ! Object End Use Key
  ,                                       ! Quantity {dimensionless}
  0,                                      ! Material Cost {$}
  CostPerArea;                            ! Material Cost Units

OS:ComponentData,
  {c4ce3a30-23e7-410b-8829-ba12de5aee7d}, ! Handle
  Component Data 1,                       ! Name
  {013299fe-3705-404d-ac3d-05073aee84a3}, ! UUID
  {add9daf3-4d3e-4b1f-89ed-4af41f302b8a}, ! Version UUID
  1363981294,                             ! Creation Timestamp
  1363981294,                             ! Version Timestamp
  {5f589a7f-a48e-426c-ab45-dc7d2e35d774}, ! Name of Object 1
  {bc2be9ce-2e92-49ba-9103-d56f161996f2}, ! Name of Object 2
  {b3e78766-4201-485d-a2f3-28c94a6dc46c}; ! Name of Object 3

