
OS:Version,
  {2662883e-17c4-4ba8-a07a-2be55795f0fc}, ! Handle
  0.9.3;                                  ! Version Identifier

OS:Construction,
  {122d3983-1460-4b9f-8123-a6bb572616d6}, ! Handle
  90.1-2001 Nonres B15 Ext Slab Unheated - 8in Slab with Carpet, ! Name
  ,                                       ! Surface Rendering Name
  {7ef3526f-fb33-4f31-a506-171d180b6611}, ! Layer 1
  {cc6a0be4-57a7-4064-a694-166a706d591b}; ! Layer 2

OS:Material,
  {7ef3526f-fb33-4f31-a506-171d180b6611}, ! Handle
  MAT-CC05 8 HW CONCRETE,                 ! Name
  Rough,                                  ! Roughness
  0.20321,                                ! Thickness {m}
  1.311,                                  ! Conductivity {W/m-K}
  2240,                                   ! Density {kg/m3}
  836.8,                                  ! Specific Heat {J/kg-K}
  0.9,                                    ! Thermal Absorptance
  0.7,                                    ! Solar Absorptance
  0.7;                                    ! Visible Absorptance

OS:Material:NoMass,
  {cc6a0be4-57a7-4064-a694-166a706d591b}, ! Handle
  CP02 CARPET PAD,                        ! Name
  VeryRough,                              ! Roughness
  0.21648,                                ! Thermal Resistance {m2-K/W}
  0.9,                                    ! Thermal Absorptance
  0.7,                                    ! Solar Absorptance
  0.8;                                    ! Visible Absorptance

OS:ComponentCost:LineItem,
  {c67fad0f-43d7-4e56-89ef-67d8252cbd6a}, ! Handle
  90.1-2001 Nonres B15 Ext Slab Unheated - 8in Slab with Carpet, ! Name
  ,                                       ! Type
  Construction,                           ! Line Item Type
  90.1-2001 Nonres B15 Ext Slab Unheated - 8in Slab with Carpet, ! Item Name
  ,                                       ! Object End Use Key
  ,                                       ! Quantity {dimensionless}
  45.52,                                  ! Material Cost {$}
  CostPerArea;                            ! Material Cost Units

