
OS:Version,
  {e1f06ccc-29f7-4550-883d-1b714b256441}, ! Handle
  0.9.3;                                  ! Version Identifier

OS:Material,
  {c1a2fdf6-284d-4586-92ea-8735f0740830}, ! Handle
  Metal Decking,                          ! Name
  MediumSmooth,                           ! Roughness
  0.001524,                               ! Thickness {m}
  45.006,                                 ! Conductivity {W/m-K}
  7680,                                   ! Density {kg/m3}
  418.4,                                  ! Specific Heat {J/kg-K}
  0.9,                                    ! Thermal Absorptance
  0.7,                                    ! Solar Absorptance
  0.3;                                    ! Visible Absorptance

OS:Construction,
  {6f947347-8924-4bc0-9983-a09812829139}, ! Handle
  AEDG-SmOffice 7A Roof IEAD,             ! Name
  ,                                       ! Surface Rendering Name
  {44441f84-5ef1-416d-bec2-bd7a7b59ccac}, ! Layer 1
  {1add766c-14ff-4ce8-872c-360b98c64384}, ! Layer 2
  {c1a2fdf6-284d-4586-92ea-8735f0740830}; ! Layer 3

OS:Material,
  {44441f84-5ef1-416d-bec2-bd7a7b59ccac}, ! Handle
  Roof Membrane,                          ! Name
  VeryRough,                              ! Roughness
  0.0095,                                 ! Thickness {m}
  0.16,                                   ! Conductivity {W/m-K}
  1121.29,                                ! Density {kg/m3}
  1460,                                   ! Specific Heat {J/kg-K}
  0.9,                                    ! Thermal Absorptance
  0.7,                                    ! Solar Absorptance
  0.7;                                    ! Visible Absorptance

OS:Material,
  {1add766c-14ff-4ce8-872c-360b98c64384}, ! Handle
  Roof Insulation [7],                    ! Name
  MediumRough,                            ! Roughness
  0.167563,                               ! Thickness {m}
  0.049,                                  ! Conductivity {W/m-K}
  265,                                    ! Density {kg/m3}
  836.8,                                  ! Specific Heat {J/kg-K}
  0.9,                                    ! Thermal Absorptance
  0.7,                                    ! Solar Absorptance
  0.7;                                    ! Visible Absorptance

OS:ComponentCost:LineItem,
  {d4323710-ad36-4eec-99d3-702de715605e}, ! Handle
  AEDG-SmOffice 7A Roof IEAD,             ! Name
  ,                                       ! Type
  Construction,                           ! Line Item Type
  AEDG-SmOffice 7A Roof IEAD,             ! Item Name
  ,                                       ! Object End Use Key
  ,                                       ! Quantity {dimensionless}
  52.896,                                 ! Material Cost {$}
  CostPerArea;                            ! Material Cost Units

