
OS:Version,
  {7021e923-ec97-444a-bdb6-f72fb475d765}, ! Handle
  0.9.3;                                  ! Version Identifier

OS:Construction,
  {ad53a989-0c8e-43f6-929c-b263f554c4b5}, ! Handle
  90.1-1999 Res B17 Window Fixed,         ! Name
  ,                                       ! Surface Rendering Name
  {19d158f1-29d0-4f59-9835-27f48bda7aa2}; ! Layer 1

OS:WindowMaterial:Glazing,
  {19d158f1-29d0-4f59-9835-27f48bda7aa2}, ! Handle
  Theoretical Glass [94],                 ! Name
  SpectralAverage,                        ! Optical Data Type
  ,                                       ! Window Glass Spectral Data Set Name
  0.003,                                  ! Thickness {m}
  0.469989,                               ! Solar Transmittance at Normal Incidence
  0.480011,                               ! Front Side Solar Reflectance at Normal Incidence
  0.480011,                               ! Back Side Solar Reflectance at Normal Incidence
  0.489393,                               ! Visible Transmittance at Normal Incidence
  0.460607,                               ! Front Side Visible Reflectance at Normal Incidence
  0.460607,                               ! Back Side Visible Reflectance at Normal Incidence
  0,                                      ! Infrared Transmittance at Normal Incidence
  0.9,                                    ! Front Side Infrared Hemispherical Emissivity
  0.9,                                    ! Back Side Infrared Hemispherical Emissivity
  0.0137862;                              ! Conductivity {W/m-K}

OS:ComponentCost:LineItem,
  {c2b3619f-9beb-4700-a3bd-c371ed44c6e7}, ! Handle
  90.1-1999 Res B17 Window Fixed,         ! Name
  ,                                       ! Type
  Construction,                           ! Line Item Type
  90.1-1999 Res B17 Window Fixed,         ! Item Name
  ,                                       ! Object End Use Key
  ,                                       ! Quantity {dimensionless}
  537.952,                                ! Material Cost {$}
  CostPerArea;                            ! Material Cost Units

