
OS:Version,
  {7267c22e-af4d-4452-93d8-62618c12b27f}, ! Handle
  0.9.3;                                  ! Version Identifier

OS:Material,
  {34733362-e915-4772-a370-bc34b8273a92}, ! Handle
  Roof Insulation [1],                    ! Name
  MediumRough,                            ! Roughness
  0.123533,                               ! Thickness {m}
  0.049,                                  ! Conductivity {W/m-K}
  265,                                    ! Density {kg/m3}
  836.8,                                  ! Specific Heat {J/kg-K}
  0.9,                                    ! Thermal Absorptance
  0.7,                                    ! Solar Absorptance
  0.7;                                    ! Visible Absorptance

OS:Material,
  {32da9445-8cf2-466f-b9fa-cc0d0cb01575}, ! Handle
  Metal Roofing,                          ! Name
  MediumSmooth,                           ! Roughness
  0.001524,                               ! Thickness {m}
  45.006,                                 ! Conductivity {W/m-K}
  7680,                                   ! Density {kg/m3}
  418.4,                                  ! Specific Heat {J/kg-K}
  0.9,                                    ! Thermal Absorptance
  0.7,                                    ! Solar Absorptance
  0.3;                                    ! Visible Absorptance

OS:ComponentCost:LineItem,
  {709e85a6-2439-4f43-a965-09cfdd016267}, ! Handle
  90.1-2004 Nonres 7A Roof Metal Building, ! Name
  ,                                       ! Type
  Construction,                           ! Line Item Type
  90.1-2004 Nonres 7A Roof Metal Building, ! Item Name
  ,                                       ! Object End Use Key
  ,                                       ! Quantity {dimensionless}
  38.206,                                 ! Material Cost {$}
  CostPerArea;                            ! Material Cost Units

OS:Construction,
  {578d3a88-1282-4158-a791-48b360e56c31}, ! Handle
  90.1-2004 Nonres 7A Roof Metal Building, ! Name
  ,                                       ! Surface Rendering Name
  {32da9445-8cf2-466f-b9fa-cc0d0cb01575}, ! Layer 1
  {34733362-e915-4772-a370-bc34b8273a92}; ! Layer 2

