
OS:Version,
  {1a51207f-5a20-4eb0-b9c5-8619cbc8880a}, ! Handle
  0.9.3;                                  ! Version Identifier

OS:Material,
  {ee44fb3e-a72d-4192-a326-e1aa20758bc4}, ! Handle
  Wall Insulation [13],                   ! Name
  MediumRough,                            ! Roughness
  0.140713,                               ! Thickness {m}
  0.045,                                  ! Conductivity {W/m-K}
  265,                                    ! Density {kg/m3}
  836.8,                                  ! Specific Heat {J/kg-K}
  0.9,                                    ! Thermal Absorptance
  0.7,                                    ! Solar Absorptance
  0.7;                                    ! Visible Absorptance

OS:Material,
  {a5c61d01-4dae-44f3-8e30-c1ca34ae2632}, ! Handle
  1/2IN Gypsum,                           ! Name
  Smooth,                                 ! Roughness
  0.01271,                                ! Thickness {m}
  0.16,                                   ! Conductivity {W/m-K}
  784.9,                                  ! Density {kg/m3}
  830,                                    ! Specific Heat {J/kg-K}
  0.9,                                    ! Thermal Absorptance
  0.92,                                   ! Solar Absorptance
  0.92;                                   ! Visible Absorptance

OS:ComponentCost:LineItem,
  {1d393677-85b8-4292-b6d5-1785bda32926}, ! Handle
  90.1-2007 Res 5B Ext Wall Wood-Framed and Other, ! Name
  ,                                       ! Type
  Construction,                           ! Line Item Type
  90.1-2007 Res 5B Ext Wall Wood-Framed and Other, ! Item Name
  ,                                       ! Object End Use Key
  ,                                       ! Quantity {dimensionless}
  80.638,                                 ! Material Cost {$}
  CostPerArea;                            ! Material Cost Units

OS:Material,
  {8fcefca2-1c8b-4442-8598-429d21380d8b}, ! Handle
  Wood Siding,                            ! Name
  MediumSmooth,                           ! Roughness
  0.01,                                   ! Thickness {m}
  0.11,                                   ! Conductivity {W/m-K}
  544.62,                                 ! Density {kg/m3}
  1210,                                   ! Specific Heat {J/kg-K}
  0.9,                                    ! Thermal Absorptance
  0.78,                                   ! Solar Absorptance
  0.78;                                   ! Visible Absorptance

OS:Construction,
  {ed782369-8ce0-4113-b006-56ab825a0c5d}, ! Handle
  90.1-2007 Res 5B Ext Wall Wood-Framed and Other, ! Name
  ,                                       ! Surface Rendering Name
  {8fcefca2-1c8b-4442-8598-429d21380d8b}, ! Layer 1
  {ee44fb3e-a72d-4192-a326-e1aa20758bc4}, ! Layer 2
  {a5c61d01-4dae-44f3-8e30-c1ca34ae2632}; ! Layer 3

