
OS:Version,
  {355d182f-255a-4a10-872a-7cd2251e5848}, ! Handle
  0.9.3;                                  ! Version Identifier

OS:Material:NoMass,
  {b500a652-aed5-4c2c-a2c7-29fa364856cb}, ! Handle
  CP02 CARPET PAD,                        ! Name
  VeryRough,                              ! Roughness
  0.21648,                                ! Thermal Resistance {m2-K/W}
  0.9,                                    ! Thermal Absorptance
  0.7,                                    ! Solar Absorptance
  0.8;                                    ! Visible Absorptance

OS:ComponentCost:LineItem,
  {21f6ba61-0a7a-4206-bf68-1f4f96d2524b}, ! Handle
  90.1-2007 Nonres 4B Exposed Floor Mass, ! Name
  ,                                       ! Type
  Construction,                           ! Line Item Type
  90.1-2007 Nonres 4B Exposed Floor Mass, ! Item Name
  ,                                       ! Object End Use Key
  ,                                       ! Quantity {dimensionless}
  49.612,                                 ! Material Cost {$}
  CostPerArea;                            ! Material Cost Units

OS:Material,
  {237c95a0-d2fa-4167-93f7-637cf4d80071}, ! Handle
  Floor Insulation [2],                   ! Name
  MediumRough,                            ! Roughness
  0.0635689,                              ! Thickness {m}
  0.045,                                  ! Conductivity {W/m-K}
  265,                                    ! Density {kg/m3}
  836.8,                                  ! Specific Heat {J/kg-K}
  0.9,                                    ! Thermal Absorptance
  0.7,                                    ! Solar Absorptance
  0.7;                                    ! Visible Absorptance

OS:Construction,
  {91e6d8b2-e0b9-4998-876a-49f5375287af}, ! Handle
  90.1-2007 Nonres 4B Exposed Floor Mass, ! Name
  ,                                       ! Surface Rendering Name
  {237c95a0-d2fa-4167-93f7-637cf4d80071}, ! Layer 1
  {2689ad08-3390-489b-97d5-0e426599f32e}, ! Layer 2
  {b500a652-aed5-4c2c-a2c7-29fa364856cb}; ! Layer 3

OS:Material,
  {2689ad08-3390-489b-97d5-0e426599f32e}, ! Handle
  MAT-CC05 8 HW CONCRETE,                 ! Name
  Rough,                                  ! Roughness
  0.20321,                                ! Thickness {m}
  1.311,                                  ! Conductivity {W/m-K}
  2240,                                   ! Density {kg/m3}
  836.8,                                  ! Specific Heat {J/kg-K}
  0.9,                                    ! Thermal Absorptance
  0.7,                                    ! Solar Absorptance
  0.7;                                    ! Visible Absorptance

