
OS:Version,
  {1af91244-f6c4-4373-a74a-21beb5ee3a03}, ! Handle
  0.9.3;                                  ! Version Identifier

OS:Construction,
  {672e858a-718e-4e4c-a8b6-a9a35566f381}, ! Handle
  90.1-2007 Nonres 2A Door Swinging,      ! Name
  ,                                       ! Surface Rendering Name
  {fe57a651-e873-4052-ad55-20f3bc4cd15a}, ! Layer 1
  {5b2949ac-27be-4f75-87ba-d6f16e24c1d1}, ! Layer 2
  {d9a12995-8c0b-46af-a02e-42aad4dfbd6a}; ! Layer 3

OS:Material,
  {fe57a651-e873-4052-ad55-20f3bc4cd15a}, ! Handle
  METAL Door Medium 18Ga_1,               ! Name
  Smooth,                                 ! Roughness
  0.0013106,                              ! Thickness {m}
  45.3149,                                ! Conductivity {W/m-K}
  7833.03,                                ! Density {kg/m3}
  502.08,                                 ! Specific Heat {J/kg-K}
  0.8,                                    ! Thermal Absorptance
  0.5,                                    ! Solar Absorptance
  0.5;                                    ! Visible Absorptance

OS:Material:NoMass,
  {5b2949ac-27be-4f75-87ba-d6f16e24c1d1}, ! Handle
  AIR,                                    ! Name
  Smooth,                                 ! Roughness
  0.251489,                               ! Thermal Resistance {m2-K/W}
  0.8,                                    ! Thermal Absorptance
  0.5,                                    ! Solar Absorptance
  0.5;                                    ! Visible Absorptance

OS:Material,
  {d9a12995-8c0b-46af-a02e-42aad4dfbd6a}, ! Handle
  METAL Door Medium 18Ga_2,               ! Name
  Smooth,                                 ! Roughness
  0.0013106,                              ! Thickness {m}
  45.3149,                                ! Conductivity {W/m-K}
  7833.03,                                ! Density {kg/m3}
  502.08,                                 ! Specific Heat {J/kg-K}
  0.8,                                    ! Thermal Absorptance
  0.5,                                    ! Solar Absorptance
  0.5;                                    ! Visible Absorptance

OS:ComponentCost:LineItem,
  {11df5eca-4505-4671-9872-27118369a8bd}, ! Handle
  90.1-2007 Nonres 2A Door Swinging,      ! Name
  ,                                       ! Type
  Construction,                           ! Line Item Type
  90.1-2007 Nonres 2A Door Swinging,      ! Item Name
  ,                                       ! Object End Use Key
  ,                                       ! Quantity {dimensionless}
  0,                                      ! Material Cost {$}
  CostPerArea;                            ! Material Cost Units

