
OS:Version,
  {0397c786-dc14-49fe-a9e6-2329bff014b0}, ! Handle
  0.9.3;                                  ! Version Identifier

OS:Construction,
  {6d267317-e05b-469f-a323-89fca4bfad6a}, ! Handle
  189.1-2009 Nonres 7A Ext Slab Unheated - 8in Slab without Carpet, ! Name
  ,                                       ! Surface Rendering Name
  {2bd5f0f4-886b-412f-8457-14d6a2cd33a6}; ! Layer 1

OS:Material,
  {2bd5f0f4-886b-412f-8457-14d6a2cd33a6}, ! Handle
  MAT-CC05 8 HW CONCRETE,                 ! Name
  Rough,                                  ! Roughness
  0.20321,                                ! Thickness {m}
  1.311,                                  ! Conductivity {W/m-K}
  2240,                                   ! Density {kg/m3}
  836.8,                                  ! Specific Heat {J/kg-K}
  0.9,                                    ! Thermal Absorptance
  0.7,                                    ! Solar Absorptance
  0.7;                                    ! Visible Absorptance

OS:ComponentCost:LineItem,
  {5d599aed-dc41-470d-be81-c8bd03fdb7dd}, ! Handle
  189.1-2009 Nonres 7A Ext Slab Unheated - 8in Slab without Carpet, ! Name
  ,                                       ! Type
  Construction,                           ! Line Item Type
  189.1-2009 Nonres 7A Ext Slab Unheated - 8in Slab without Carpet, ! Item Name
  ,                                       ! Object End Use Key
  ,                                       ! Quantity {dimensionless}
  45.52,                                  ! Material Cost {$}
  CostPerArea;                            ! Material Cost Units

OS:ComponentData,
  {d380ba82-3fbc-45db-9bc5-704e1a4983e8}, ! Handle
  Component Data 1,                       ! Name
  {558e334f-24d7-4301-af47-c490e2bcdecf}, ! UUID
  {f1fdece5-fa3b-402a-88b9-3be755959a1e}, ! Version UUID
  1363980951,                             ! Creation Timestamp
  1363980951,                             ! Version Timestamp
  {6d267317-e05b-469f-a323-89fca4bfad6a}, ! Name of Object 1
  {2bd5f0f4-886b-412f-8457-14d6a2cd33a6}, ! Name of Object 2
  {5d599aed-dc41-470d-be81-c8bd03fdb7dd}; ! Name of Object 3

