
OS:Version,
  {f1b1987a-4eb7-48cb-9ee7-f27193670f8f}, ! Handle
  0.9.3;                                  ! Version Identifier

OS:Material,
  {3ba1fcf3-ec61-4fec-892b-31b46f82289b}, ! Handle
  MAT-CC05 8 HW CONCRETE,                 ! Name
  Rough,                                  ! Roughness
  0.20321,                                ! Thickness {m}
  1.311,                                  ! Conductivity {W/m-K}
  2240,                                   ! Density {kg/m3}
  836.8,                                  ! Specific Heat {J/kg-K}
  0.9,                                    ! Thermal Absorptance
  0.7,                                    ! Solar Absorptance
  0.7;                                    ! Visible Absorptance

OS:Construction,
  {1ee0cdcd-c465-4cff-b1d1-112e4b3009dc}, ! Handle
  189.1-2009 Nonres 7A Ext Slab Unheated - 8in Slab without Carpet, ! Name
  ,                                       ! Surface Rendering Name
  {3ba1fcf3-ec61-4fec-892b-31b46f82289b}; ! Layer 1

OS:ComponentCost:LineItem,
  {38616a24-11f6-4905-9e34-3b037c394f30}, ! Handle
  189.1-2009 Nonres 7A Ext Slab Unheated - 8in Slab without Carpet, ! Name
  ,                                       ! Type
  Construction,                           ! Line Item Type
  189.1-2009 Nonres 7A Ext Slab Unheated - 8in Slab without Carpet, ! Item Name
  ,                                       ! Object End Use Key
  ,                                       ! Quantity {dimensionless}
  45.52,                                  ! Material Cost {$}
  CostPerArea;                            ! Material Cost Units

