
OS:Version,
  {8ca24249-d317-42b9-827d-069c7b6de581}, ! Handle
  0.9.3;                                  ! Version Identifier

OS:Construction,
  {86d64358-fd69-4c9d-a9ca-e60e15fe0c22}, ! Handle
  189.1-2009 Res 5B Skylight without Curb, ! Name
  ,                                       ! Surface Rendering Name
  {5da74e21-ca0f-4592-a7cf-fc20a3e3330f}; ! Layer 1

OS:WindowMaterial:Glazing,
  {5da74e21-ca0f-4592-a7cf-fc20a3e3330f}, ! Handle
  Theoretical Glass [212],                ! Name
  SpectralAverage,                        ! Optical Data Type
  ,                                       ! Window Glass Spectral Data Set Name
  0.003,                                  ! Thickness {m}
  0.340373,                               ! Solar Transmittance at Normal Incidence
  0.609627,                               ! Front Side Solar Reflectance at Normal Incidence
  0.609627,                               ! Back Side Solar Reflectance at Normal Incidence
  0.457336,                               ! Visible Transmittance at Normal Incidence
  0.492664,                               ! Front Side Visible Reflectance at Normal Incidence
  0.492664,                               ! Back Side Visible Reflectance at Normal Incidence
  0,                                      ! Infrared Transmittance at Normal Incidence
  0.9,                                    ! Front Side Infrared Hemispherical Emissivity
  0.9,                                    ! Back Side Infrared Hemispherical Emissivity
  0.0133196;                              ! Conductivity {W/m-K}

OS:ComponentCost:LineItem,
  {7c287156-9707-4708-9519-7764d085ff58}, ! Handle
  189.1-2009 Res 5B Skylight without Curb, ! Name
  ,                                       ! Type
  Construction,                           ! Line Item Type
  189.1-2009 Res 5B Skylight without Curb, ! Item Name
  ,                                       ! Object End Use Key
  ,                                       ! Quantity {dimensionless}
  590.568,                                ! Material Cost {$}
  CostPerArea;                            ! Material Cost Units

OS:ComponentData,
  {2f53de1d-668a-48dc-9ff3-149bda0c5b97}, ! Handle
  Component Data 1,                       ! Name
  {cf6cb4dd-b2d7-4752-91d7-b0387f7a936e}, ! UUID
  {340d9dae-4bba-44d8-a2b1-36aacf5bf14a}, ! Version UUID
  1363980978,                             ! Creation Timestamp
  1363980978,                             ! Version Timestamp
  {86d64358-fd69-4c9d-a9ca-e60e15fe0c22}, ! Name of Object 1
  {5da74e21-ca0f-4592-a7cf-fc20a3e3330f}, ! Name of Object 2
  {7c287156-9707-4708-9519-7764d085ff58}; ! Name of Object 3

