
OS:Version,
  {c1d5daf3-af64-4b22-8b95-e7252c6d8a4c}, ! Handle
  0.9.3;                                  ! Version Identifier

OS:Construction,
  {dc12b370-f71f-4d7d-b603-448501387ae9}, ! Handle
  189.1-2009 Res 5B Skylight without Curb, ! Name
  ,                                       ! Surface Rendering Name
  {5b0496fe-6d3f-4aa4-a510-56d7c73dbc43}; ! Layer 1

OS:WindowMaterial:Glazing,
  {5b0496fe-6d3f-4aa4-a510-56d7c73dbc43}, ! Handle
  Theoretical Glass [212],                ! Name
  SpectralAverage,                        ! Optical Data Type
  ,                                       ! Window Glass Spectral Data Set Name
  0.003,                                  ! Thickness {m}
  0.340373,                               ! Solar Transmittance at Normal Incidence
  0.609627,                               ! Front Side Solar Reflectance at Normal Incidence
  0.609627,                               ! Back Side Solar Reflectance at Normal Incidence
  0.457336,                               ! Visible Transmittance at Normal Incidence
  0.492664,                               ! Front Side Visible Reflectance at Normal Incidence
  0.492664,                               ! Back Side Visible Reflectance at Normal Incidence
  0,                                      ! Infrared Transmittance at Normal Incidence
  0.9,                                    ! Front Side Infrared Hemispherical Emissivity
  0.9,                                    ! Back Side Infrared Hemispherical Emissivity
  0.0133196;                              ! Conductivity {W/m-K}

OS:ComponentCost:LineItem,
  {d4138af2-817d-41f7-98e4-c94cc28b46eb}, ! Handle
  189.1-2009 Res 5B Skylight without Curb, ! Name
  ,                                       ! Type
  Construction,                           ! Line Item Type
  189.1-2009 Res 5B Skylight without Curb, ! Item Name
  ,                                       ! Object End Use Key
  ,                                       ! Quantity {dimensionless}
  590.568,                                ! Material Cost {$}
  CostPerArea;                            ! Material Cost Units

