
OS:Version,
  {af099098-eff9-402b-b39d-3a239b8d08ce}, ! Handle
  0.9.3;                                  ! Version Identifier

OS:ComponentCost:LineItem,
  {b8d25442-80bb-4a67-81ad-dc00984a261b}, ! Handle
  Title 24-2005 Nonres 2 Ext Wall Metal Building, ! Name
  ,                                       ! Type
  Construction,                           ! Line Item Type
  Title 24-2005 Nonres 2 Ext Wall Metal Building, ! Item Name
  ,                                       ! Object End Use Key
  ,                                       ! Quantity {dimensionless}
  98.78,                                  ! Material Cost {$}
  CostPerArea;                            ! Material Cost Units

OS:Material,
  {b4c9e055-1c8f-4632-9ea8-e7ded7c9ff46}, ! Handle
  Wall Insulation [154],                  ! Name
  MediumRough,                            ! Roughness
  0.059872,                               ! Thickness {m}
  0.045,                                  ! Conductivity {W/m-K}
  265,                                    ! Density {kg/m3}
  836.8,                                  ! Specific Heat {J/kg-K}
  0.9,                                    ! Thermal Absorptance
  0.7,                                    ! Solar Absorptance
  0.7;                                    ! Visible Absorptance

OS:Construction,
  {2ef05ad8-589a-4ca4-957a-78200a0e4548}, ! Handle
  Title 24-2005 Nonres 2 Ext Wall Metal Building, ! Name
  ,                                       ! Surface Rendering Name
  {5e3e61f9-fe62-4602-a218-51ef7dce5acf}, ! Layer 1
  {b4c9e055-1c8f-4632-9ea8-e7ded7c9ff46}, ! Layer 2
  {f8212473-d0a5-46ed-a21b-c6c45e984caf}; ! Layer 3

OS:Material,
  {5e3e61f9-fe62-4602-a218-51ef7dce5acf}, ! Handle
  Metal Siding,                           ! Name
  Smooth,                                 ! Roughness
  0.0015,                                 ! Thickness {m}
  44.96,                                  ! Conductivity {W/m-K}
  7688.86,                                ! Density {kg/m3}
  410,                                    ! Specific Heat {J/kg-K}
  0.9,                                    ! Thermal Absorptance
  0.2,                                    ! Solar Absorptance
  0.2;                                    ! Visible Absorptance

OS:Material,
  {f8212473-d0a5-46ed-a21b-c6c45e984caf}, ! Handle
  1/2IN Gypsum,                           ! Name
  Smooth,                                 ! Roughness
  0.01271,                                ! Thickness {m}
  0.16,                                   ! Conductivity {W/m-K}
  784.9,                                  ! Density {kg/m3}
  830,                                    ! Specific Heat {J/kg-K}
  0.9,                                    ! Thermal Absorptance
  0.92,                                   ! Solar Absorptance
  0.92;                                   ! Visible Absorptance

