
OS:Version,
  {ac8a0ea4-0b61-4b43-bd74-987865a3af05}, ! Handle
  0.9.3;                                  ! Version Identifier

OS:Construction,
  {1ad8a284-6872-4389-bdd3-cf3541d31370}, ! Handle
  90.1-1999 Nonres B18 Ext Slab Unheated - 4in Slab with Carpet, ! Name
  ,                                       ! Surface Rendering Name
  {3fd11ca0-3ac1-4f53-bcc0-c896d999d282}, ! Layer 1
  {1b3d0185-528f-4b3d-9e79-d8eb8b9ea0ee}; ! Layer 2

OS:Material,
  {3fd11ca0-3ac1-4f53-bcc0-c896d999d282}, ! Handle
  MAT-CC05 4 HW CONCRETE,                 ! Name
  Rough,                                  ! Roughness
  0.1016,                                 ! Thickness {m}
  1.311,                                  ! Conductivity {W/m-K}
  2240,                                   ! Density {kg/m3}
  836.8,                                  ! Specific Heat {J/kg-K}
  0.9,                                    ! Thermal Absorptance
  0.7,                                    ! Solar Absorptance
  0.7;                                    ! Visible Absorptance

OS:Material:NoMass,
  {1b3d0185-528f-4b3d-9e79-d8eb8b9ea0ee}, ! Handle
  CP02 CARPET PAD,                        ! Name
  VeryRough,                              ! Roughness
  0.21648,                                ! Thermal Resistance {m2-K/W}
  0.9,                                    ! Thermal Absorptance
  0.7,                                    ! Solar Absorptance
  0.8;                                    ! Visible Absorptance

OS:ComponentCost:LineItem,
  {eb32da0e-c63b-4483-9a10-92b8a3f93a63}, ! Handle
  90.1-1999 Nonres B18 Ext Slab Unheated - 4in Slab with Carpet, ! Name
  ,                                       ! Type
  Construction,                           ! Line Item Type
  90.1-1999 Nonres B18 Ext Slab Unheated - 4in Slab with Carpet, ! Item Name
  ,                                       ! Object End Use Key
  ,                                       ! Quantity {dimensionless}
  45.52,                                  ! Material Cost {$}
  CostPerArea;                            ! Material Cost Units

