
OS:Version,
  {e148b261-8d7a-4fd4-881e-7fbefbf3379e}, ! Handle
  0.9.3;                                  ! Version Identifier

OS:Construction,
  {525ea26c-b436-4d10-b729-5cbefa3ac42c}, ! Handle
  90.1-2007 Res 8A Ext Wall Steel-Framed, ! Name
  ,                                       ! Surface Rendering Name
  {a6544212-ca65-49da-aefe-696499a05987}, ! Layer 1
  {98dff6c1-a4d0-4cd4-9bbd-00c3ac2aa626}, ! Layer 2
  {9fea2880-96c1-4ddb-8881-6a40effc57ba}; ! Layer 3

OS:Material:NoMass,
  {a6544212-ca65-49da-aefe-696499a05987}, ! Handle
  MAT-SHEATH,                             ! Name
  Rough,                                  ! Roughness
  0.36256,                                ! Thermal Resistance {m2-K/W}
  0.9,                                    ! Thermal Absorptance
  0.7,                                    ! Solar Absorptance
  0.7;                                    ! Visible Absorptance

OS:Material,
  {98dff6c1-a4d0-4cd4-9bbd-00c3ac2aa626}, ! Handle
  Wall Insulation [30],                   ! Name
  MediumRough,                            ! Roughness
  0.187482,                               ! Thickness {m}
  0.045,                                  ! Conductivity {W/m-K}
  265,                                    ! Density {kg/m3}
  836.8,                                  ! Specific Heat {J/kg-K}
  0.9,                                    ! Thermal Absorptance
  0.7,                                    ! Solar Absorptance
  0.7;                                    ! Visible Absorptance

OS:Material,
  {9fea2880-96c1-4ddb-8881-6a40effc57ba}, ! Handle
  1/2IN Gypsum,                           ! Name
  Smooth,                                 ! Roughness
  0.01271,                                ! Thickness {m}
  0.16,                                   ! Conductivity {W/m-K}
  784.9,                                  ! Density {kg/m3}
  830,                                    ! Specific Heat {J/kg-K}
  0.9,                                    ! Thermal Absorptance
  0.92,                                   ! Solar Absorptance
  0.92;                                   ! Visible Absorptance

OS:ComponentCost:LineItem,
  {366dd4f1-2f02-4658-b4bb-62eebf856ad0}, ! Handle
  90.1-2007 Res 8A Ext Wall Steel-Framed, ! Name
  ,                                       ! Type
  Construction,                           ! Line Item Type
  90.1-2007 Res 8A Ext Wall Steel-Framed, ! Item Name
  ,                                       ! Object End Use Key
  ,                                       ! Quantity {dimensionless}
  103.891,                                ! Material Cost {$}
  CostPerArea;                            ! Material Cost Units

