
OS:Version,
  {fc387da8-343f-43eb-8813-61912becefa6}, ! Handle
  0.9.3;                                  ! Version Identifier

OS:WindowMaterial:Glazing,
  {04b05dec-4987-4ce0-a9ae-22bcdfc8dbef}, ! Handle
  Theoretical Glass [242],                ! Name
  SpectralAverage,                        ! Optical Data Type
  ,                                       ! Window Glass Spectral Data Set Name
  0.003,                                  ! Thickness {m}
  0.381632,                               ! Solar Transmittance at Normal Incidence
  0.568368,                               ! Front Side Solar Reflectance at Normal Incidence
  0.568368,                               ! Back Side Solar Reflectance at Normal Incidence
  0.549983,                               ! Visible Transmittance at Normal Incidence
  0.400017,                               ! Front Side Visible Reflectance at Normal Incidence
  0.400017,                               ! Back Side Visible Reflectance at Normal Incidence
  0,                                      ! Infrared Transmittance at Normal Incidence
  0.9,                                    ! Front Side Infrared Hemispherical Emissivity
  0.9,                                    ! Back Side Infrared Hemispherical Emissivity
  0.0230964;                              ! Conductivity {W/m-K}

OS:Construction,
  {721c2797-9628-4114-a704-b5ced2737a88}, ! Handle
  AEDG SHC Nonres 5B Skylight Glass Skylight with Curb, ! Name
  ,                                       ! Surface Rendering Name
  {04b05dec-4987-4ce0-a9ae-22bcdfc8dbef}; ! Layer 1

OS:ComponentCost:LineItem,
  {0426d90c-d8c9-4fa2-9ce8-27e42fd2bf92}, ! Handle
  AEDG SHC Nonres 5B Skylight Glass Skylight with Curb, ! Name
  ,                                       ! Type
  Construction,                           ! Line Item Type
  AEDG SHC Nonres 5B Skylight Glass Skylight with Curb, ! Item Name
  ,                                       ! Object End Use Key
  ,                                       ! Quantity {dimensionless}
  0,                                      ! Material Cost {$}
  CostPerArea;                            ! Material Cost Units

