
OS:Version,
  {5a68676b-1548-4a8e-8f55-8868b9f1ecb9}, ! Handle
  0.9.3;                                  ! Version Identifier

OS:Construction,
  {840868f2-a691-4655-a99a-d4a7237fad6e}, ! Handle
  AEDG SHC Nonres 5B Skylight Glass Skylight with Curb, ! Name
  ,                                       ! Surface Rendering Name
  {99106a68-8cfb-4a7b-888d-e8e29de15378}; ! Layer 1

OS:WindowMaterial:Glazing,
  {99106a68-8cfb-4a7b-888d-e8e29de15378}, ! Handle
  Theoretical Glass [242],                ! Name
  SpectralAverage,                        ! Optical Data Type
  ,                                       ! Window Glass Spectral Data Set Name
  0.003,                                  ! Thickness {m}
  0.381632,                               ! Solar Transmittance at Normal Incidence
  0.568368,                               ! Front Side Solar Reflectance at Normal Incidence
  0.568368,                               ! Back Side Solar Reflectance at Normal Incidence
  0.549983,                               ! Visible Transmittance at Normal Incidence
  0.400017,                               ! Front Side Visible Reflectance at Normal Incidence
  0.400017,                               ! Back Side Visible Reflectance at Normal Incidence
  0,                                      ! Infrared Transmittance at Normal Incidence
  0.9,                                    ! Front Side Infrared Hemispherical Emissivity
  0.9,                                    ! Back Side Infrared Hemispherical Emissivity
  0.0230964;                              ! Conductivity {W/m-K}

OS:ComponentCost:LineItem,
  {ae94b081-af1e-4f9e-a18a-af87a81a19f2}, ! Handle
  AEDG SHC Nonres 5B Skylight Glass Skylight with Curb, ! Name
  ,                                       ! Type
  Construction,                           ! Line Item Type
  AEDG SHC Nonres 5B Skylight Glass Skylight with Curb, ! Item Name
  ,                                       ! Object End Use Key
  ,                                       ! Quantity {dimensionless}
  0,                                      ! Material Cost {$}
  CostPerArea;                            ! Material Cost Units

OS:ComponentData,
  {848917dd-6294-42d0-96d2-ce950fa88efb}, ! Handle
  Component Data 1,                       ! Name
  {4e6bfd47-b790-4417-90bb-b53b4c03c7d1}, ! UUID
  {686f8a73-528e-499d-9b6c-25044a78cec8}, ! Version UUID
  1363981926,                             ! Creation Timestamp
  1363981926,                             ! Version Timestamp
  {840868f2-a691-4655-a99a-d4a7237fad6e}, ! Name of Object 1
  {99106a68-8cfb-4a7b-888d-e8e29de15378}, ! Name of Object 2
  {ae94b081-af1e-4f9e-a18a-af87a81a19f2}; ! Name of Object 3

