
OS:Version,
  {481e659e-2b36-405c-a409-f676d50d98b6}, ! Handle
  0.9.3;                                  ! Version Identifier

OS:ComponentCost:LineItem,
  {bfbc7875-5939-460b-98d3-fc49dab08616}, ! Handle
  90.1-2007 Res 1A Roof Attic and Other,  ! Name
  ,                                       ! Type
  Construction,                           ! Line Item Type
  90.1-2007 Res 1A Roof Attic and Other,  ! Item Name
  ,                                       ! Object End Use Key
  ,                                       ! Quantity {dimensionless}
  34.757,                                 ! Material Cost {$}
  CostPerArea;                            ! Material Cost Units

OS:Material,
  {4e644154-1cd6-4014-94f0-15831c3f96ff}, ! Handle
  Roof Insulation [5],                    ! Name
  MediumRough,                            ! Roughness
  0.286906,                               ! Thickness {m}
  0.049,                                  ! Conductivity {W/m-K}
  265,                                    ! Density {kg/m3}
  836.8,                                  ! Specific Heat {J/kg-K}
  0.9,                                    ! Thermal Absorptance
  0.7,                                    ! Solar Absorptance
  0.7;                                    ! Visible Absorptance

OS:Material,
  {d38058f1-8ba9-4472-a81c-7928d962ac3b}, ! Handle
  1IN Wood Decking,                       ! Name
  MediumSmooth,                           ! Roughness
  0.0254,                                 ! Thickness {m}
  0.1211,                                 ! Conductivity {W/m-K}
  593,                                    ! Density {kg/m3}
  2510,                                   ! Specific Heat {J/kg-K}
  0.9,                                    ! Thermal Absorptance
  0.78,                                   ! Solar Absorptance
  0.78;                                   ! Visible Absorptance

OS:Material,
  {4c917b45-c663-48ab-b1dc-d33bb183616e}, ! Handle
  1/2IN Gypsum,                           ! Name
  Smooth,                                 ! Roughness
  0.01271,                                ! Thickness {m}
  0.16,                                   ! Conductivity {W/m-K}
  784.9,                                  ! Density {kg/m3}
  830,                                    ! Specific Heat {J/kg-K}
  0.9,                                    ! Thermal Absorptance
  0.92,                                   ! Solar Absorptance
  0.92;                                   ! Visible Absorptance

OS:Material,
  {944d3240-ae95-4b46-84f4-9324bdc8b9e5}, ! Handle
  Wood Shingles,                          ! Name
  VeryRough,                              ! Roughness
  0.0178,                                 ! Thickness {m}
  0.115,                                  ! Conductivity {W/m-K}
  513,                                    ! Density {kg/m3}
  1255,                                   ! Specific Heat {J/kg-K}
  0.9,                                    ! Thermal Absorptance
  0.78,                                   ! Solar Absorptance
  0.78;                                   ! Visible Absorptance

OS:Construction,
  {e7e158e0-9a83-4947-9659-ce9d94da8977}, ! Handle
  90.1-2007 Res 1A Roof Attic and Other,  ! Name
  ,                                       ! Surface Rendering Name
  {944d3240-ae95-4b46-84f4-9324bdc8b9e5}, ! Layer 1
  {d38058f1-8ba9-4472-a81c-7928d962ac3b}, ! Layer 2
  {4e644154-1cd6-4014-94f0-15831c3f96ff}, ! Layer 3
  {4c917b45-c663-48ab-b1dc-d33bb183616e}; ! Layer 4

