
OS:Version,
  {b72f9a5e-2769-4502-900d-272836fb22a4}, ! Handle
  0.9.3;                                  ! Version Identifier

OS:Construction,
  {a439eba8-dac7-419e-99de-5471a4890a26}, ! Handle
  90.1-2007 Nonres 1A Door Swinging,      ! Name
  ,                                       ! Surface Rendering Name
  {297048ff-59d0-4eee-bad7-2c891edbc23c}, ! Layer 1
  {5ac6d427-c8fb-45d9-93ad-aa5f3ddb914a}, ! Layer 2
  {eaad0276-ac80-496e-b81d-3b1498725902}; ! Layer 3

OS:Material,
  {297048ff-59d0-4eee-bad7-2c891edbc23c}, ! Handle
  METAL Door Medium 18Ga_1,               ! Name
  Smooth,                                 ! Roughness
  0.0013106,                              ! Thickness {m}
  45.3149,                                ! Conductivity {W/m-K}
  7833.03,                                ! Density {kg/m3}
  502.08,                                 ! Specific Heat {J/kg-K}
  0.8,                                    ! Thermal Absorptance
  0.5,                                    ! Solar Absorptance
  0.5;                                    ! Visible Absorptance

OS:Material:NoMass,
  {5ac6d427-c8fb-45d9-93ad-aa5f3ddb914a}, ! Handle
  AIR,                                    ! Name
  Smooth,                                 ! Roughness
  0.251489,                               ! Thermal Resistance {m2-K/W}
  0.8,                                    ! Thermal Absorptance
  0.5,                                    ! Solar Absorptance
  0.5;                                    ! Visible Absorptance

OS:Material,
  {eaad0276-ac80-496e-b81d-3b1498725902}, ! Handle
  METAL Door Medium 18Ga_2,               ! Name
  Smooth,                                 ! Roughness
  0.0013106,                              ! Thickness {m}
  45.3149,                                ! Conductivity {W/m-K}
  7833.03,                                ! Density {kg/m3}
  502.08,                                 ! Specific Heat {J/kg-K}
  0.8,                                    ! Thermal Absorptance
  0.5,                                    ! Solar Absorptance
  0.5;                                    ! Visible Absorptance

OS:ComponentCost:LineItem,
  {ee19b66b-616e-417f-8f82-cb48cd22fb9a}, ! Handle
  90.1-2007 Nonres 1A Door Swinging,      ! Name
  ,                                       ! Type
  Construction,                           ! Line Item Type
  90.1-2007 Nonres 1A Door Swinging,      ! Item Name
  ,                                       ! Object End Use Key
  ,                                       ! Quantity {dimensionless}
  0,                                      ! Material Cost {$}
  CostPerArea;                            ! Material Cost Units

