
OS:Version,
  {1a0e082f-4bc6-4167-8b4a-92d3a317639e}, ! Handle
  0.9.3;                                  ! Version Identifier

OS:Construction,
  {ce1fc6cd-d0f0-43e4-a409-96d0fc47ae5a}, ! Handle
  90.1-2007 Res 2A Window Metal framing curtainwall-storefront, ! Name
  ,                                       ! Surface Rendering Name
  {98fa4a0d-84bc-4fb8-b70f-63416c8288c2}; ! Layer 1

OS:WindowMaterial:Glazing,
  {98fa4a0d-84bc-4fb8-b70f-63416c8288c2}, ! Handle
  Theoretical Glass [171],                ! Name
  SpectralAverage,                        ! Optical Data Type
  ,                                       ! Window Glass Spectral Data Set Name
  0.003,                                  ! Thickness {m}
  0.242764,                               ! Solar Transmittance at Normal Incidence
  0.707236,                               ! Front Side Solar Reflectance at Normal Incidence
  0.707236,                               ! Back Side Solar Reflectance at Normal Incidence
  0.251212,                               ! Visible Transmittance at Normal Incidence
  0.698788,                               ! Front Side Visible Reflectance at Normal Incidence
  0.698788,                               ! Back Side Visible Reflectance at Normal Incidence
  0,                                      ! Infrared Transmittance at Normal Incidence
  0.9,                                    ! Front Side Infrared Hemispherical Emissivity
  0.9,                                    ! Back Side Infrared Hemispherical Emissivity
  0.0313721;                              ! Conductivity {W/m-K}

OS:ComponentCost:LineItem,
  {7114d358-3ad8-4880-86d5-7d957cc1dae9}, ! Handle
  90.1-2007 Res 2A Window Metal framing curtainwall-storefront, ! Name
  ,                                       ! Type
  Construction,                           ! Line Item Type
  90.1-2007 Res 2A Window Metal framing curtainwall-storefront, ! Item Name
  ,                                       ! Object End Use Key
  ,                                       ! Quantity {dimensionless}
  600.037,                                ! Material Cost {$}
  CostPerArea;                            ! Material Cost Units

