
OS:Version,
  {32951de3-ea3d-43e2-aa90-531177d02485}, ! Handle
  0.9.3;                                  ! Version Identifier

OS:Material,
  {f86c48d3-292b-4019-9234-c3ebb21d2ae9}, ! Handle
  Wall Insulation [8],                    ! Name
  MediumRough,                            ! Roughness
  0.067929,                               ! Thickness {m}
  0.0432,                                 ! Conductivity {W/m-K}
  91,                                     ! Density {kg/m3}
  837,                                    ! Specific Heat {J/kg-K}
  0.9,                                    ! Thermal Absorptance
  0.5,                                    ! Solar Absorptance
  0.5;                                    ! Visible Absorptance

OS:Material,
  {f9032215-5286-4de7-b448-221f4cad36fd}, ! Handle
  1IN Stucco,                             ! Name
  Smooth,                                 ! Roughness
  0.0253,                                 ! Thickness {m}
  0.6918,                                 ! Conductivity {W/m-K}
  1858,                                   ! Density {kg/m3}
  837,                                    ! Specific Heat {J/kg-K}
  0.9,                                    ! Thermal Absorptance
  0.92,                                   ! Solar Absorptance
  0.92;                                   ! Visible Absorptance

OS:Construction,
  {1d35757d-565f-4ade-9458-9df44279f33d}, ! Handle
  90.1-2007 Nonres 5B Ext Wall Mass,      ! Name
  ,                                       ! Surface Rendering Name
  {f9032215-5286-4de7-b448-221f4cad36fd}, ! Layer 1
  {691c992c-eeed-436e-bfce-65b8de686fb2}, ! Layer 2
  {f86c48d3-292b-4019-9234-c3ebb21d2ae9}, ! Layer 3
  {7d33ad9d-6fd0-447f-b3ed-f25c0cb9352d}; ! Layer 4

OS:Material,
  {691c992c-eeed-436e-bfce-65b8de686fb2}, ! Handle
  8IN Concrete HW,                        ! Name
  MediumRough,                            ! Roughness
  0.2033,                                 ! Thickness {m}
  1.7296,                                 ! Conductivity {W/m-K}
  2243,                                   ! Density {kg/m3}
  837,                                    ! Specific Heat {J/kg-K}
  0.9,                                    ! Thermal Absorptance
  0.65,                                   ! Solar Absorptance
  0.65;                                   ! Visible Absorptance

OS:Material,
  {7d33ad9d-6fd0-447f-b3ed-f25c0cb9352d}, ! Handle
  1/2IN Gypsum,                           ! Name
  Smooth,                                 ! Roughness
  0.01271,                                ! Thickness {m}
  0.16,                                   ! Conductivity {W/m-K}
  784.9,                                  ! Density {kg/m3}
  830,                                    ! Specific Heat {J/kg-K}
  0.9,                                    ! Thermal Absorptance
  0.92,                                   ! Solar Absorptance
  0.92;                                   ! Visible Absorptance

OS:ComponentCost:LineItem,
  {fc7ae5ea-1482-478c-82b2-c6140d11adce}, ! Handle
  90.1-2007 Nonres 5B Ext Wall Mass,      ! Name
  ,                                       ! Type
  Construction,                           ! Line Item Type
  90.1-2007 Nonres 5B Ext Wall Mass,      ! Item Name
  ,                                       ! Object End Use Key
  ,                                       ! Quantity {dimensionless}
  65.826,                                 ! Material Cost {$}
  CostPerArea;                            ! Material Cost Units

