
OS:Version,
  {877c1b17-faa7-4ea8-b61a-acbe5c3b8508}, ! Handle
  0.9.3;                                  ! Version Identifier

OS:Construction,
  {1c45e404-879b-4110-8c71-0c907b0ac96f}, ! Handle
  90.1-2007 Nonres 5B Ext Wall Mass,      ! Name
  ,                                       ! Surface Rendering Name
  {ae601810-c93f-4630-81db-6ec476a4877d}, ! Layer 1
  {4f19a742-a4be-47d8-aee4-2d5984147c8a}, ! Layer 2
  {a96b6739-916a-4330-b1f1-8334344abe1a}, ! Layer 3
  {4c9ab6d0-ff73-479f-b2cd-d88153f21e85}; ! Layer 4

OS:Material,
  {ae601810-c93f-4630-81db-6ec476a4877d}, ! Handle
  1IN Stucco,                             ! Name
  Smooth,                                 ! Roughness
  0.0253,                                 ! Thickness {m}
  0.6918,                                 ! Conductivity {W/m-K}
  1858,                                   ! Density {kg/m3}
  837,                                    ! Specific Heat {J/kg-K}
  0.9,                                    ! Thermal Absorptance
  0.92,                                   ! Solar Absorptance
  0.92;                                   ! Visible Absorptance

OS:Material,
  {4f19a742-a4be-47d8-aee4-2d5984147c8a}, ! Handle
  8IN Concrete HW,                        ! Name
  MediumRough,                            ! Roughness
  0.2033,                                 ! Thickness {m}
  1.7296,                                 ! Conductivity {W/m-K}
  2243,                                   ! Density {kg/m3}
  837,                                    ! Specific Heat {J/kg-K}
  0.9,                                    ! Thermal Absorptance
  0.65,                                   ! Solar Absorptance
  0.65;                                   ! Visible Absorptance

OS:Material,
  {a96b6739-916a-4330-b1f1-8334344abe1a}, ! Handle
  Wall Insulation [8],                    ! Name
  MediumRough,                            ! Roughness
  0.067929,                               ! Thickness {m}
  0.0432,                                 ! Conductivity {W/m-K}
  91,                                     ! Density {kg/m3}
  837,                                    ! Specific Heat {J/kg-K}
  0.9,                                    ! Thermal Absorptance
  0.5,                                    ! Solar Absorptance
  0.5;                                    ! Visible Absorptance

OS:Material,
  {4c9ab6d0-ff73-479f-b2cd-d88153f21e85}, ! Handle
  1/2IN Gypsum,                           ! Name
  Smooth,                                 ! Roughness
  0.01271,                                ! Thickness {m}
  0.16,                                   ! Conductivity {W/m-K}
  784.9,                                  ! Density {kg/m3}
  830,                                    ! Specific Heat {J/kg-K}
  0.9,                                    ! Thermal Absorptance
  0.92,                                   ! Solar Absorptance
  0.92;                                   ! Visible Absorptance

OS:ComponentCost:LineItem,
  {93291fb2-1484-46f6-8774-e9b495aee297}, ! Handle
  90.1-2007 Nonres 5B Ext Wall Mass,      ! Name
  ,                                       ! Type
  Construction,                           ! Line Item Type
  90.1-2007 Nonres 5B Ext Wall Mass,      ! Item Name
  ,                                       ! Object End Use Key
  ,                                       ! Quantity {dimensionless}
  65.826,                                 ! Material Cost {$}
  CostPerArea;                            ! Material Cost Units

OS:ComponentData,
  {f84f4859-eda6-47fc-8a79-e561f4d56a4f}, ! Handle
  Component Data 1,                       ! Name
  {852b9b7b-5e67-474c-b222-d2c4619a4d79}, ! UUID
  {93ad6e21-9065-47fb-9779-d459cce20e58}, ! Version UUID
  1363981807,                             ! Creation Timestamp
  1363981807,                             ! Version Timestamp
  {1c45e404-879b-4110-8c71-0c907b0ac96f}, ! Name of Object 1
  {ae601810-c93f-4630-81db-6ec476a4877d}, ! Name of Object 2
  {4f19a742-a4be-47d8-aee4-2d5984147c8a}, ! Name of Object 3
  {a96b6739-916a-4330-b1f1-8334344abe1a}, ! Name of Object 4
  {4c9ab6d0-ff73-479f-b2cd-d88153f21e85}, ! Name of Object 5
  {93291fb2-1484-46f6-8774-e9b495aee297}; ! Name of Object 6

