
OS:Version,
  {75b18ee4-50df-49b5-ba86-bcce2b1b265e}, ! Handle
  0.9.3;                                  ! Version Identifier

OS:Construction,
  {eddd2239-c262-4b84-abc0-a367bc69fca0}, ! Handle
  90.1-2001 Nonres B18 Skylight without Curb, ! Name
  ,                                       ! Surface Rendering Name
  {6ba1935f-7104-4829-a897-d9d75d983a47}; ! Layer 1

OS:WindowMaterial:Glazing,
  {6ba1935f-7104-4829-a897-d9d75d983a47}, ! Handle
  Theoretical Glass [38],                 ! Name
  SpectralAverage,                        ! Optical Data Type
  ,                                       ! Window Glass Spectral Data Set Name
  0.003,                                  ! Thickness {m}
  0.670707,                               ! Solar Transmittance at Normal Incidence
  0.279293,                               ! Front Side Solar Reflectance at Normal Incidence
  0.279293,                               ! Back Side Solar Reflectance at Normal Incidence
  0.754945,                               ! Visible Transmittance at Normal Incidence
  0.195055,                               ! Front Side Visible Reflectance at Normal Incidence
  0.195055,                               ! Back Side Visible Reflectance at Normal Incidence
  0,                                      ! Infrared Transmittance at Normal Incidence
  0.9,                                    ! Front Side Infrared Hemispherical Emissivity
  0.9,                                    ! Back Side Infrared Hemispherical Emissivity
  0.03026;                                ! Conductivity {W/m-K}

OS:ComponentCost:LineItem,
  {f6484974-a306-4b0b-b931-6dc47e750c38}, ! Handle
  90.1-2001 Nonres B18 Skylight without Curb, ! Name
  ,                                       ! Type
  Construction,                           ! Line Item Type
  90.1-2001 Nonres B18 Skylight without Curb, ! Item Name
  ,                                       ! Object End Use Key
  ,                                       ! Quantity {dimensionless}
  502.229,                                ! Material Cost {$}
  CostPerArea;                            ! Material Cost Units

