
OS:Version,
  {d01fab93-9f36-4700-98f9-7feefdcec7a5}, ! Handle
  0.9.3;                                  ! Version Identifier

OS:Construction,
  {6819be7e-e8e4-4cf5-a555-6172644cf410}, ! Handle
  90.1-2001 Res B7 Ext Wall Wood-Framed and Other, ! Name
  ,                                       ! Surface Rendering Name
  {71e1f455-37e1-4364-ba20-c5edb96d4f30}, ! Layer 1
  {12067177-21bf-48e9-8521-be0e2362181b}, ! Layer 2
  {603a0cb1-9e2a-465e-a381-786edcc53267}; ! Layer 3

OS:Material,
  {71e1f455-37e1-4364-ba20-c5edb96d4f30}, ! Handle
  Wood Siding,                            ! Name
  MediumSmooth,                           ! Roughness
  0.01,                                   ! Thickness {m}
  0.11,                                   ! Conductivity {W/m-K}
  544.62,                                 ! Density {kg/m3}
  1210,                                   ! Specific Heat {J/kg-K}
  0.9,                                    ! Thermal Absorptance
  0.78,                                   ! Solar Absorptance
  0.78;                                   ! Visible Absorptance

OS:Material,
  {12067177-21bf-48e9-8521-be0e2362181b}, ! Handle
  Wall Insulation [2],                    ! Name
  MediumRough,                            ! Roughness
  0.0746874,                              ! Thickness {m}
  0.045,                                  ! Conductivity {W/m-K}
  265,                                    ! Density {kg/m3}
  836.8,                                  ! Specific Heat {J/kg-K}
  0.9,                                    ! Thermal Absorptance
  0.7,                                    ! Solar Absorptance
  0.7;                                    ! Visible Absorptance

OS:Material,
  {603a0cb1-9e2a-465e-a381-786edcc53267}, ! Handle
  1/2IN Gypsum,                           ! Name
  Smooth,                                 ! Roughness
  0.01271,                                ! Thickness {m}
  0.16,                                   ! Conductivity {W/m-K}
  784.9,                                  ! Density {kg/m3}
  830,                                    ! Specific Heat {J/kg-K}
  0.9,                                    ! Thermal Absorptance
  0.92,                                   ! Solar Absorptance
  0.92;                                   ! Visible Absorptance

OS:ComponentCost:LineItem,
  {06494f5e-92b6-45e4-b30e-47e54f6734c8}, ! Handle
  90.1-2001 Res B7 Ext Wall Wood-Framed and Other, ! Name
  ,                                       ! Type
  Construction,                           ! Line Item Type
  90.1-2001 Res B7 Ext Wall Wood-Framed and Other, ! Item Name
  ,                                       ! Object End Use Key
  ,                                       ! Quantity {dimensionless}
  73.056,                                 ! Material Cost {$}
  CostPerArea;                            ! Material Cost Units

