
OS:Version,
  {441547e2-33ce-49e8-b305-3e0325e56c67}, ! Handle
  0.9.3;                                  ! Version Identifier

OS:Construction,
  {e4d1f5f4-5e42-497c-9f0d-859542e04ecf}, ! Handle
  90.1-2001 Nonres B8 Ext Wall Metal Building, ! Name
  ,                                       ! Surface Rendering Name
  {6416410c-da56-4a51-8dd4-92795966e203}, ! Layer 1
  {4b3b6313-8b48-40d7-842b-88d0263f46bf}, ! Layer 2
  {37d7559f-ef5d-48a6-abef-9236fd0979bb}; ! Layer 3

OS:Material,
  {6416410c-da56-4a51-8dd4-92795966e203}, ! Handle
  Metal Siding,                           ! Name
  Smooth,                                 ! Roughness
  0.0015,                                 ! Thickness {m}
  44.96,                                  ! Conductivity {W/m-K}
  7688.86,                                ! Density {kg/m3}
  410,                                    ! Specific Heat {J/kg-K}
  0.9,                                    ! Thermal Absorptance
  0.2,                                    ! Solar Absorptance
  0.2;                                    ! Visible Absorptance

OS:Material,
  {4b3b6313-8b48-40d7-842b-88d0263f46bf}, ! Handle
  Wall Insulation,                        ! Name
  MediumRough,                            ! Roughness
  0.0598725,                              ! Thickness {m}
  0.045,                                  ! Conductivity {W/m-K}
  265,                                    ! Density {kg/m3}
  836.8,                                  ! Specific Heat {J/kg-K}
  0.9,                                    ! Thermal Absorptance
  0.7,                                    ! Solar Absorptance
  0.7;                                    ! Visible Absorptance

OS:Material,
  {37d7559f-ef5d-48a6-abef-9236fd0979bb}, ! Handle
  1/2IN Gypsum,                           ! Name
  Smooth,                                 ! Roughness
  0.01271,                                ! Thickness {m}
  0.16,                                   ! Conductivity {W/m-K}
  784.9,                                  ! Density {kg/m3}
  830,                                    ! Specific Heat {J/kg-K}
  0.9,                                    ! Thermal Absorptance
  0.92,                                   ! Solar Absorptance
  0.92;                                   ! Visible Absorptance

OS:ComponentCost:LineItem,
  {393454b8-5093-4984-8348-5aa657d531e1}, ! Handle
  90.1-2001 Nonres B8 Ext Wall Metal Building, ! Name
  ,                                       ! Type
  Construction,                           ! Line Item Type
  90.1-2001 Nonres B8 Ext Wall Metal Building, ! Item Name
  ,                                       ! Object End Use Key
  ,                                       ! Quantity {dimensionless}
  98.78,                                  ! Material Cost {$}
  CostPerArea;                            ! Material Cost Units

