
OS:Version,
  {bbe39f26-2d06-4c51-ac4c-0e33a4d0f83f}, ! Handle
  0.9.3;                                  ! Version Identifier

OS:Construction,
  {b035f279-eb1a-4bfa-ab9c-728db466a3f7}, ! Handle
  90.1-2001 Nonres B8 Ext Wall Metal Building, ! Name
  ,                                       ! Surface Rendering Name
  {bf794497-b55d-4e1b-a846-0d8af5b84e6b}, ! Layer 1
  {8a3bf087-b76e-4f9c-85dc-0fbba76b54f4}, ! Layer 2
  {3a9ceefe-06fd-4439-b37c-b6ab4dc7dfa2}; ! Layer 3

OS:Material,
  {bf794497-b55d-4e1b-a846-0d8af5b84e6b}, ! Handle
  Metal Siding,                           ! Name
  Smooth,                                 ! Roughness
  0.0015,                                 ! Thickness {m}
  44.96,                                  ! Conductivity {W/m-K}
  7688.86,                                ! Density {kg/m3}
  410,                                    ! Specific Heat {J/kg-K}
  0.9,                                    ! Thermal Absorptance
  0.2,                                    ! Solar Absorptance
  0.2;                                    ! Visible Absorptance

OS:Material,
  {8a3bf087-b76e-4f9c-85dc-0fbba76b54f4}, ! Handle
  Wall Insulation,                        ! Name
  MediumRough,                            ! Roughness
  0.0598725,                              ! Thickness {m}
  0.045,                                  ! Conductivity {W/m-K}
  265,                                    ! Density {kg/m3}
  836.8,                                  ! Specific Heat {J/kg-K}
  0.9,                                    ! Thermal Absorptance
  0.7,                                    ! Solar Absorptance
  0.7;                                    ! Visible Absorptance

OS:Material,
  {3a9ceefe-06fd-4439-b37c-b6ab4dc7dfa2}, ! Handle
  1/2IN Gypsum,                           ! Name
  Smooth,                                 ! Roughness
  0.01271,                                ! Thickness {m}
  0.16,                                   ! Conductivity {W/m-K}
  784.9,                                  ! Density {kg/m3}
  830,                                    ! Specific Heat {J/kg-K}
  0.9,                                    ! Thermal Absorptance
  0.92,                                   ! Solar Absorptance
  0.92;                                   ! Visible Absorptance

OS:ComponentCost:LineItem,
  {0fece7d2-10b5-4ac7-929f-fbc97948d5cd}, ! Handle
  90.1-2001 Nonres B8 Ext Wall Metal Building, ! Name
  ,                                       ! Type
  Construction,                           ! Line Item Type
  90.1-2001 Nonres B8 Ext Wall Metal Building, ! Item Name
  ,                                       ! Object End Use Key
  ,                                       ! Quantity {dimensionless}
  98.78,                                  ! Material Cost {$}
  CostPerArea;                            ! Material Cost Units

OS:ComponentData,
  {dac2aa80-e4f5-4844-b900-10b0c58137c2}, ! Handle
  Component Data 1,                       ! Name
  {df86bc88-6afa-432d-857b-5ec6699dc1a6}, ! UUID
  {d0b9e06c-276e-4113-a9d3-23b65652924a}, ! Version UUID
  1363981327,                             ! Creation Timestamp
  1363981327,                             ! Version Timestamp
  {b035f279-eb1a-4bfa-ab9c-728db466a3f7}, ! Name of Object 1
  {bf794497-b55d-4e1b-a846-0d8af5b84e6b}, ! Name of Object 2
  {8a3bf087-b76e-4f9c-85dc-0fbba76b54f4}, ! Name of Object 3
  {3a9ceefe-06fd-4439-b37c-b6ab4dc7dfa2}, ! Name of Object 4
  {0fece7d2-10b5-4ac7-929f-fbc97948d5cd}; ! Name of Object 5

