
OS:Version,
  {e07e63b9-78c5-4661-8da2-eb80590a3230}, ! Handle
  0.9.3;                                  ! Version Identifier

OS:Construction,
  {95ed9064-2eae-47d5-801a-d9f30c93bd0b}, ! Handle
  90.1-2004 Nonres 3C Skylight without Curb, ! Name
  ,                                       ! Surface Rendering Name
  {72dcc114-489a-4d8c-b314-77f60bd87c6a}; ! Layer 1

OS:WindowMaterial:Glazing,
  {72dcc114-489a-4d8c-b314-77f60bd87c6a}, ! Handle
  Theoretical Glass [142],                ! Name
  SpectralAverage,                        ! Optical Data Type
  ,                                       ! Window Glass Spectral Data Set Name
  0.003,                                  ! Thickness {m}
  0.595954,                               ! Solar Transmittance at Normal Incidence
  0.354046,                               ! Front Side Solar Reflectance at Normal Incidence
  0.354046,                               ! Back Side Solar Reflectance at Normal Incidence
  0.774999,                               ! Visible Transmittance at Normal Incidence
  0.175001,                               ! Front Side Visible Reflectance at Normal Incidence
  0.175001,                               ! Back Side Visible Reflectance at Normal Incidence
  0,                                      ! Infrared Transmittance at Normal Incidence
  0.999,                                  ! Front Side Infrared Hemispherical Emissivity
  0.999,                                  ! Back Side Infrared Hemispherical Emissivity
  299.383;                                ! Conductivity {W/m-K}

OS:ComponentCost:LineItem,
  {bc5f3faf-bbab-4f65-8171-2bb53559b163}, ! Handle
  90.1-2004 Nonres 3C Skylight without Curb, ! Name
  ,                                       ! Type
  Construction,                           ! Line Item Type
  90.1-2004 Nonres 3C Skylight without Curb, ! Item Name
  ,                                       ! Object End Use Key
  ,                                       ! Quantity {dimensionless}
  459.189,                                ! Material Cost {$}
  CostPerArea;                            ! Material Cost Units

OS:ComponentData,
  {9c9ed32f-0c89-4e0c-a6ef-9ad308d9cf55}, ! Handle
  Component Data 1,                       ! Name
  {424e0dca-3fcf-451f-8f22-077fab060ed4}, ! UUID
  {b0f886e6-d3dd-4e09-bab7-3a09054925d2}, ! Version UUID
  1363981667,                             ! Creation Timestamp
  1363981667,                             ! Version Timestamp
  {95ed9064-2eae-47d5-801a-d9f30c93bd0b}, ! Name of Object 1
  {72dcc114-489a-4d8c-b314-77f60bd87c6a}, ! Name of Object 2
  {bc5f3faf-bbab-4f65-8171-2bb53559b163}; ! Name of Object 3

