
OS:Version,
  {c6a11418-6411-4d2b-b149-e7b92f178461}, ! Handle
  0.9.3;                                  ! Version Identifier

OS:Construction,
  {9b617e71-3bed-4668-a17e-2495bb18f5cf}, ! Handle
  90.1-2004 Nonres 3C Skylight without Curb, ! Name
  ,                                       ! Surface Rendering Name
  {e0c00cf8-2b35-4b11-9ca2-a07259ae11d9}; ! Layer 1

OS:WindowMaterial:Glazing,
  {e0c00cf8-2b35-4b11-9ca2-a07259ae11d9}, ! Handle
  Theoretical Glass [142],                ! Name
  SpectralAverage,                        ! Optical Data Type
  ,                                       ! Window Glass Spectral Data Set Name
  0.003,                                  ! Thickness {m}
  0.595954,                               ! Solar Transmittance at Normal Incidence
  0.354046,                               ! Front Side Solar Reflectance at Normal Incidence
  0.354046,                               ! Back Side Solar Reflectance at Normal Incidence
  0.774999,                               ! Visible Transmittance at Normal Incidence
  0.175001,                               ! Front Side Visible Reflectance at Normal Incidence
  0.175001,                               ! Back Side Visible Reflectance at Normal Incidence
  0,                                      ! Infrared Transmittance at Normal Incidence
  0.999,                                  ! Front Side Infrared Hemispherical Emissivity
  0.999,                                  ! Back Side Infrared Hemispherical Emissivity
  299.383;                                ! Conductivity {W/m-K}

OS:ComponentCost:LineItem,
  {e0dba62c-d818-47b4-89f3-56c599b75ef1}, ! Handle
  90.1-2004 Nonres 3C Skylight without Curb, ! Name
  ,                                       ! Type
  Construction,                           ! Line Item Type
  90.1-2004 Nonres 3C Skylight without Curb, ! Item Name
  ,                                       ! Object End Use Key
  ,                                       ! Quantity {dimensionless}
  459.189,                                ! Material Cost {$}
  CostPerArea;                            ! Material Cost Units

