
OS:Version,
  {1a5fc90d-3313-4078-81c2-85c087f5ed6c}, ! Handle
  0.9.3;                                  ! Version Identifier

OS:Material:NoMass,
  {df7f7650-9ee2-46e8-8772-26670a60543c}, ! Handle
  MAT-SHEATH,                             ! Name
  Rough,                                  ! Roughness
  0.36256,                                ! Thermal Resistance {m2-K/W}
  0.9,                                    ! Thermal Absorptance
  0.7,                                    ! Solar Absorptance
  0.7;                                    ! Visible Absorptance

OS:Material,
  {681ac669-cb15-4b51-a244-57326e4ad2ea}, ! Handle
  Wall Insulation [6],                    ! Name
  MediumRough,                            ! Roughness
  0.0678449,                              ! Thickness {m}
  0.045,                                  ! Conductivity {W/m-K}
  265,                                    ! Density {kg/m3}
  836.8,                                  ! Specific Heat {J/kg-K}
  0.9,                                    ! Thermal Absorptance
  0.7,                                    ! Solar Absorptance
  0.7;                                    ! Visible Absorptance

OS:Construction,
  {fa13cf00-a569-40f6-9d65-6987c3f9a37d}, ! Handle
  90.1-2004 Nonres 5B Ext Wall Steel-Framed, ! Name
  ,                                       ! Surface Rendering Name
  {df7f7650-9ee2-46e8-8772-26670a60543c}, ! Layer 1
  {681ac669-cb15-4b51-a244-57326e4ad2ea}, ! Layer 2
  {e12fe955-7e71-4ccb-aef4-b72ca7a59d2f}; ! Layer 3

OS:Material,
  {e12fe955-7e71-4ccb-aef4-b72ca7a59d2f}, ! Handle
  1/2IN Gypsum,                           ! Name
  Smooth,                                 ! Roughness
  0.01271,                                ! Thickness {m}
  0.16,                                   ! Conductivity {W/m-K}
  784.9,                                  ! Density {kg/m3}
  830,                                    ! Specific Heat {J/kg-K}
  0.9,                                    ! Thermal Absorptance
  0.92,                                   ! Solar Absorptance
  0.92;                                   ! Visible Absorptance

OS:ComponentCost:LineItem,
  {664a8708-bcbd-4805-a3b7-5cf6452a9493}, ! Handle
  90.1-2004 Nonres 5B Ext Wall Steel-Framed, ! Name
  ,                                       ! Type
  Construction,                           ! Line Item Type
  90.1-2004 Nonres 5B Ext Wall Steel-Framed, ! Item Name
  ,                                       ! Object End Use Key
  ,                                       ! Quantity {dimensionless}
  91.749,                                 ! Material Cost {$}
  CostPerArea;                            ! Material Cost Units

