
OS:Version,
  {4f2d1092-b68c-441c-b3d8-8984d9eacb29}, ! Handle
  0.9.3;                                  ! Version Identifier

OS:Construction,
  {77b7b9de-3891-452f-b9c4-a254b079e668}, ! Handle
  90.1-1999 Res B25 Ext Wall Mass,        ! Name
  ,                                       ! Surface Rendering Name
  {5c05c85c-7288-4777-9b20-b95faa319bcc}, ! Layer 1
  {107fa105-a416-4ccf-8c15-9a5975144688}, ! Layer 2
  {e3c5303a-a169-4908-b458-c020b2140822}, ! Layer 3
  {a7b33a9c-678a-4e31-9fe9-487ef8499bbf}; ! Layer 4

OS:Material,
  {5c05c85c-7288-4777-9b20-b95faa319bcc}, ! Handle
  1IN Stucco,                             ! Name
  Smooth,                                 ! Roughness
  0.0253,                                 ! Thickness {m}
  0.6918,                                 ! Conductivity {W/m-K}
  1858,                                   ! Density {kg/m3}
  837,                                    ! Specific Heat {J/kg-K}
  0.9,                                    ! Thermal Absorptance
  0.92,                                   ! Solar Absorptance
  0.92;                                   ! Visible Absorptance

OS:Material,
  {107fa105-a416-4ccf-8c15-9a5975144688}, ! Handle
  8IN Concrete HW,                        ! Name
  MediumRough,                            ! Roughness
  0.2033,                                 ! Thickness {m}
  1.7296,                                 ! Conductivity {W/m-K}
  2243,                                   ! Density {kg/m3}
  837,                                    ! Specific Heat {J/kg-K}
  0.9,                                    ! Thermal Absorptance
  0.65,                                   ! Solar Absorptance
  0.65;                                   ! Visible Absorptance

OS:Material,
  {e3c5303a-a169-4908-b458-c020b2140822}, ! Handle
  Wall Insulation [14],                   ! Name
  MediumRough,                            ! Roughness
  0.0905233,                              ! Thickness {m}
  0.0432,                                 ! Conductivity {W/m-K}
  91,                                     ! Density {kg/m3}
  837,                                    ! Specific Heat {J/kg-K}
  0.9,                                    ! Thermal Absorptance
  0.5,                                    ! Solar Absorptance
  0.5;                                    ! Visible Absorptance

OS:Material,
  {a7b33a9c-678a-4e31-9fe9-487ef8499bbf}, ! Handle
  1/2IN Gypsum,                           ! Name
  Smooth,                                 ! Roughness
  0.01271,                                ! Thickness {m}
  0.16,                                   ! Conductivity {W/m-K}
  784.9,                                  ! Density {kg/m3}
  830,                                    ! Specific Heat {J/kg-K}
  0.9,                                    ! Thermal Absorptance
  0.92,                                   ! Solar Absorptance
  0.92;                                   ! Visible Absorptance

OS:ComponentCost:LineItem,
  {2ededb9b-2bca-4831-bd5c-cae002f3bc8a}, ! Handle
  90.1-1999 Res B25 Ext Wall Mass,        ! Name
  ,                                       ! Type
  Construction,                           ! Line Item Type
  90.1-1999 Res B25 Ext Wall Mass,        ! Item Name
  ,                                       ! Object End Use Key
  ,                                       ! Quantity {dimensionless}
  70.253,                                 ! Material Cost {$}
  CostPerArea;                            ! Material Cost Units

OS:ComponentData,
  {74db45ad-fe97-4390-90ca-92d0649505c8}, ! Handle
  Component Data 1,                       ! Name
  {747a7cb6-4ceb-46af-b52f-1e308d9c2cc1}, ! UUID
  {a7a469d3-f5bf-4417-8b4c-a95ff61d21a6}, ! Version UUID
  1363981275,                             ! Creation Timestamp
  1363981275,                             ! Version Timestamp
  {77b7b9de-3891-452f-b9c4-a254b079e668}, ! Name of Object 1
  {5c05c85c-7288-4777-9b20-b95faa319bcc}, ! Name of Object 2
  {107fa105-a416-4ccf-8c15-9a5975144688}, ! Name of Object 3
  {e3c5303a-a169-4908-b458-c020b2140822}, ! Name of Object 4
  {a7b33a9c-678a-4e31-9fe9-487ef8499bbf}, ! Name of Object 5
  {2ededb9b-2bca-4831-bd5c-cae002f3bc8a}; ! Name of Object 6

