
OS:Version,
  {b7e6b7d1-e10e-4493-b0ec-2c9cabe1ed02}, ! Handle
  0.9.3;                                  ! Version Identifier

OS:Material,
  {46a72f07-418b-41d5-87af-b85192ebf25b}, ! Handle
  GP01 1/2 GYPSUM,                        ! Name
  Smooth,                                 ! Roughness
  0.01271,                                ! Thickness {m}
  0.16,                                   ! Conductivity {W/m-K}
  800,                                    ! Density {kg/m3}
  1090,                                   ! Specific Heat {J/kg-K}
  0.9,                                    ! Thermal Absorptance
  0.7,                                    ! Solar Absorptance
  0.5;                                    ! Visible Absorptance

OS:Construction,
  {d899e46b-98af-4148-8ce5-9f55ed7e3422}, ! Handle
  189.1-2009 Nonres 2A Int Wall,          ! Name
  ,                                       ! Surface Rendering Name
  {46a72f07-418b-41d5-87af-b85192ebf25b}, ! Layer 1
  {46a72f07-418b-41d5-87af-b85192ebf25b}; ! Layer 2

OS:ComponentCost:LineItem,
  {181af803-1fc9-4518-9942-f8df9230b77c}, ! Handle
  189.1-2009 Nonres 2A Int Wall,          ! Name
  ,                                       ! Type
  Construction,                           ! Line Item Type
  189.1-2009 Nonres 2A Int Wall,          ! Item Name
  ,                                       ! Object End Use Key
  ,                                       ! Quantity {dimensionless}
  0,                                      ! Material Cost {$}
  CostPerArea;                            ! Material Cost Units

OS:Material,
  {0e2b3e12-ec49-43d2-ae32-5745b7299d9f}, ! Handle
  GP01 1/2 GYPSUM 1,                      ! Name
  Smooth,                                 ! Roughness
  0.01271,                                ! Thickness {m}
  0.16,                                   ! Conductivity {W/m-K}
  800,                                    ! Density {kg/m3}
  1090,                                   ! Specific Heat {J/kg-K}
  0.9,                                    ! Thermal Absorptance
  0.7,                                    ! Solar Absorptance
  0.5;                                    ! Visible Absorptance

