
OS:Version,
  {6e5aa444-fae2-4d34-a8bd-384ea684161a}, !- Handle
  1.1.0;                                  !- Version Identifier

OS:Construction,
  {fa6a91a2-b2a3-49ed-9c54-622c765e67e7}, !- Handle
  Sgl Green 3mm,                          !- Name
  ,                                       !- Surface Rendering Name
  {6ac16c51-fab8-425f-bd0b-a638271bf56f}; !- Layer 1

OS:WindowMaterial:Glazing,
  {6ac16c51-fab8-425f-bd0b-a638271bf56f}, !- Handle
  GREEN 3MM,                              !- Name
  SpectralAverage,                        !- Optical Data Type
  ,                                       !- Window Glass Spectral Data Set Name
  0.003,                                  !- Thickness {m}
  0.635,                                  !- Solar Transmittance at Normal Incidence
  0.063,                                  !- Front Side Solar Reflectance at Normal Incidence
  0.063,                                  !- Back Side Solar Reflectance at Normal Incidence
  0.822,                                  !- Visible Transmittance at Normal Incidence
  0.075,                                  !- Front Side Visible Reflectance at Normal Incidence
  0.075,                                  !- Back Side Visible Reflectance at Normal Incidence
  0,                                      !- Infrared Transmittance at Normal Incidence
  0.84,                                   !- Front Side Infrared Hemispherical Emissivity
  0.84,                                   !- Back Side Infrared Hemispherical Emissivity
  0.9;                                    !- Conductivity {W/m-K}

