
OS:Version,
  {11248125-2512-4cd2-ba60-ab9c2f156058}, !- Handle
  1.0.6;                                  !- Version Identifier

OS:WindowMaterial:Glazing,
  {f4e350da-ac12-4037-8bc6-52c62c7affbc}, !- Handle
  189.1-2011 NONRES 3A METAL FRAMING ALL OTHER THEORETICAL GLAZING, !- Name
  SpectralAverage,                        !- Optical Data Type
  ,                                       !- Window Glass Spectral Data Set Name
  0.01167,                                !- Thickness {m}
  0.16139,                                !- Solar Transmittance at Normal Incidence
  0.60478,                                !- Front Side Solar Reflectance at Normal Incidence
  0.60478,                                !- Back Side Solar Reflectance at Normal Incidence
  0.16139,                                !- Visible Transmittance at Normal Incidence
  0.60478,                                !- Front Side Visible Reflectance at Normal Incidence
  0.60478,                                !- Back Side Visible Reflectance at Normal Incidence
  0,                                      !- Infrared Transmittance at Normal Incidence
  0.84,                                   !- Front Side Infrared Hemispherical Emissivity
  0.84,                                   !- Back Side Infrared Hemispherical Emissivity
  0.0776,                                 !- Conductivity {W/m-K}
  1,                                      !- Dirt Correction Factor for Solar and Visible Transmittance
  No;                                     !- Solar Diffusing

OS:Construction,
  {aac533bf-753d-49c1-b247-2a61773842a5}, !- Handle
  189.1-2011 NONRES 3A METAL FRAMING ALL OTHER, !- Name
  ,                                       !- Surface Rendering Name
  {f4e350da-ac12-4037-8bc6-52c62c7affbc}; !- Layer 1

