
OS:Version,
  {e3ff8550-ce05-4bc0-9291-965598e01e42}, ! Handle
  0.9.3;                                  ! Version Identifier

OS:Material:NoMass,
  {fbc30c76-9dc9-4ff0-bde3-b50b2696021b}, ! Handle
  CP02 CARPET PAD,                        ! Name
  VeryRough,                              ! Roughness
  0.21648,                                ! Thermal Resistance {m2-K/W}
  0.9,                                    ! Thermal Absorptance
  0.7,                                    ! Solar Absorptance
  0.8;                                    ! Visible Absorptance

OS:ComponentCost:LineItem,
  {94d04c25-cd22-4449-816c-e1d150ca10c9}, ! Handle
  90.1-2004 Nonres 8A Ext Slab Unheated - 4in Slab with Carpet, ! Name
  ,                                       ! Type
  Construction,                           ! Line Item Type
  90.1-2004 Nonres 8A Ext Slab Unheated - 4in Slab with Carpet, ! Item Name
  ,                                       ! Object End Use Key
  ,                                       ! Quantity {dimensionless}
  45.52,                                  ! Material Cost {$}
  CostPerArea;                            ! Material Cost Units

OS:Material,
  {72deab16-2a2e-4aea-982f-a5fc431246a9}, ! Handle
  MAT-CC05 4 HW CONCRETE,                 ! Name
  Rough,                                  ! Roughness
  0.1016,                                 ! Thickness {m}
  1.311,                                  ! Conductivity {W/m-K}
  2240,                                   ! Density {kg/m3}
  836.8,                                  ! Specific Heat {J/kg-K}
  0.9,                                    ! Thermal Absorptance
  0.7,                                    ! Solar Absorptance
  0.7;                                    ! Visible Absorptance

OS:Construction,
  {79646244-00bc-4752-a6fd-e18f82693b58}, ! Handle
  90.1-2004 Nonres 8A Ext Slab Unheated - 4in Slab with Carpet, ! Name
  ,                                       ! Surface Rendering Name
  {72deab16-2a2e-4aea-982f-a5fc431246a9}, ! Layer 1
  {fbc30c76-9dc9-4ff0-bde3-b50b2696021b}; ! Layer 2

