
OS:Version,
  {99a8f6e8-9831-4d4e-84d2-444a9714be78}, ! Handle
  0.9.3;                                  ! Version Identifier

OS:Construction,
  {d84678f7-370c-4d92-830b-6ca426678c10}, ! Handle
  Title 24-2008 Nonres 10 Ext Wall Wood-Framed and Other, ! Name
  ,                                       ! Surface Rendering Name
  {7a7671c5-55e5-4355-8632-7a923481fd53}, ! Layer 1
  {9a935509-f648-49fd-80f9-fa80c3ef03c5}, ! Layer 2
  {5aad16a4-40e2-490e-8846-33e54d05da41}; ! Layer 3

OS:Material,
  {7a7671c5-55e5-4355-8632-7a923481fd53}, ! Handle
  Wood Siding,                            ! Name
  MediumSmooth,                           ! Roughness
  0.01,                                   ! Thickness {m}
  0.11,                                   ! Conductivity {W/m-K}
  544.62,                                 ! Density {kg/m3}
  1210,                                   ! Specific Heat {J/kg-K}
  0.9,                                    ! Thermal Absorptance
  0.78,                                   ! Solar Absorptance
  0.78;                                   ! Visible Absorptance

OS:Material,
  {9a935509-f648-49fd-80f9-fa80c3ef03c5}, ! Handle
  Wall Insulation [159],                  ! Name
  MediumRough,                            ! Roughness
  0.0812,                                 ! Thickness {m}
  0.045,                                  ! Conductivity {W/m-K}
  265,                                    ! Density {kg/m3}
  836.8,                                  ! Specific Heat {J/kg-K}
  0.9,                                    ! Thermal Absorptance
  0.7,                                    ! Solar Absorptance
  0.7;                                    ! Visible Absorptance

OS:Material,
  {5aad16a4-40e2-490e-8846-33e54d05da41}, ! Handle
  1/2IN Gypsum,                           ! Name
  Smooth,                                 ! Roughness
  0.01271,                                ! Thickness {m}
  0.16,                                   ! Conductivity {W/m-K}
  784.9,                                  ! Density {kg/m3}
  830,                                    ! Specific Heat {J/kg-K}
  0.9,                                    ! Thermal Absorptance
  0.92,                                   ! Solar Absorptance
  0.92;                                   ! Visible Absorptance

OS:ComponentCost:LineItem,
  {5c7ef759-986d-4044-96c2-b294e092fff3}, ! Handle
  Title 24-2008 Nonres 10 Ext Wall Wood-Framed and Other, ! Name
  ,                                       ! Type
  Construction,                           ! Line Item Type
  Title 24-2008 Nonres 10 Ext Wall Wood-Framed and Other, ! Item Name
  ,                                       ! Object End Use Key
  ,                                       ! Quantity {dimensionless}
  140.526,                                ! Material Cost {$}
  CostPerArea;                            ! Material Cost Units

