
OS:Version,
  {d352c6a7-2a9b-4621-a387-8208fad62d0c}, ! Handle
  0.9.3;                                  ! Version Identifier

OS:Construction,
  {0fce6dd5-b56b-403b-8753-4ed87121c087}, ! Handle
  90.1-1999 Nonres B7 Roof Metal Building, ! Name
  ,                                       ! Surface Rendering Name
  {fbb086df-617d-4950-bece-50855cafab53}, ! Layer 1
  {b044d992-50bd-47d1-b36b-5535a7a7c504}; ! Layer 2

OS:Material,
  {fbb086df-617d-4950-bece-50855cafab53}, ! Handle
  Metal Roofing,                          ! Name
  MediumSmooth,                           ! Roughness
  0.001524,                               ! Thickness {m}
  45.006,                                 ! Conductivity {W/m-K}
  7680,                                   ! Density {kg/m3}
  418.4,                                  ! Specific Heat {J/kg-K}
  0.9,                                    ! Thermal Absorptance
  0.7,                                    ! Solar Absorptance
  0.3;                                    ! Visible Absorptance

OS:Material,
  {b044d992-50bd-47d1-b36b-5535a7a7c504}, ! Handle
  Roof Insulation [4],                    ! Name
  MediumRough,                            ! Roughness
  0.110636,                               ! Thickness {m}
  0.049,                                  ! Conductivity {W/m-K}
  265,                                    ! Density {kg/m3}
  836.8,                                  ! Specific Heat {J/kg-K}
  0.9,                                    ! Thermal Absorptance
  0.7,                                    ! Solar Absorptance
  0.7;                                    ! Visible Absorptance

OS:ComponentCost:LineItem,
  {206293bc-030f-4928-a422-011d59ad3fbd}, ! Handle
  90.1-1999 Nonres B7 Roof Metal Building, ! Name
  ,                                       ! Type
  Construction,                           ! Line Item Type
  90.1-1999 Nonres B7 Roof Metal Building, ! Item Name
  ,                                       ! Object End Use Key
  ,                                       ! Quantity {dimensionless}
  37.342,                                 ! Material Cost {$}
  CostPerArea;                            ! Material Cost Units

