
OS:Version,
  {0203fc58-56c7-412f-abf3-fdc281e0617a}, ! Handle
  0.9.3;                                  ! Version Identifier

OS:ComponentCost:LineItem,
  {51ddc19c-7a0a-44c9-b1ff-0f9868f16d0f}, ! Handle
  90.1-2004 Nonres 2A Roof Metal Building, ! Name
  ,                                       ! Type
  Construction,                           ! Line Item Type
  90.1-2004 Nonres 2A Roof Metal Building, ! Item Name
  ,                                       ! Object End Use Key
  ,                                       ! Quantity {dimensionless}
  38.206,                                 ! Material Cost {$}
  CostPerArea;                            ! Material Cost Units

OS:Construction,
  {41af7c36-f409-470d-b886-951001dd4c39}, ! Handle
  90.1-2004 Nonres 2A Roof Metal Building, ! Name
  ,                                       ! Surface Rendering Name
  {542065e3-de61-42a1-8580-bc01dc85790c}, ! Layer 1
  {ef69dad5-99d7-4274-93d1-53682b0f9472}; ! Layer 2

OS:Material,
  {542065e3-de61-42a1-8580-bc01dc85790c}, ! Handle
  Metal Roofing,                          ! Name
  MediumSmooth,                           ! Roughness
  0.001524,                               ! Thickness {m}
  45.006,                                 ! Conductivity {W/m-K}
  7680,                                   ! Density {kg/m3}
  418.4,                                  ! Specific Heat {J/kg-K}
  0.9,                                    ! Thermal Absorptance
  0.7,                                    ! Solar Absorptance
  0.3;                                    ! Visible Absorptance

OS:Material,
  {ef69dad5-99d7-4274-93d1-53682b0f9472}, ! Handle
  Roof Insulation [1],                    ! Name
  MediumRough,                            ! Roughness
  0.123533,                               ! Thickness {m}
  0.049,                                  ! Conductivity {W/m-K}
  265,                                    ! Density {kg/m3}
  836.8,                                  ! Specific Heat {J/kg-K}
  0.9,                                    ! Thermal Absorptance
  0.7,                                    ! Solar Absorptance
  0.7;                                    ! Visible Absorptance

