
OS:Version,
  {7a3b4da5-10c9-4e88-975c-9ca56d8f8cef}, ! Handle
  0.9.3;                                  ! Version Identifier

OS:Material,
  {cc2c453b-98ce-410d-9f21-273df7fdbe76}, ! Handle
  MAT-CC05 4 HW CONCRETE,                 ! Name
  Rough,                                  ! Roughness
  0.1016,                                 ! Thickness {m}
  1.311,                                  ! Conductivity {W/m-K}
  2240,                                   ! Density {kg/m3}
  836.8,                                  ! Specific Heat {J/kg-K}
  0.9,                                    ! Thermal Absorptance
  0.7,                                    ! Solar Absorptance
  0.7;                                    ! Visible Absorptance

OS:ComponentCost:LineItem,
  {9b44c105-9168-4482-9e35-7ba7844d7a33}, ! Handle
  Title 24-2008 Nonres 7 Ext Slab Unheated - 4in Slab without Carpet, ! Name
  ,                                       ! Type
  Construction,                           ! Line Item Type
  Title 24-2008 Nonres 7 Ext Slab Unheated - 4in Slab without Carpet, ! Item Name
  ,                                       ! Object End Use Key
  ,                                       ! Quantity {dimensionless}
  45.52,                                  ! Material Cost {$}
  CostPerArea;                            ! Material Cost Units

OS:Construction,
  {66f943d9-7f69-4fb9-8325-5064d75e3dbd}, ! Handle
  Title 24-2008 Nonres 7 Ext Slab Unheated - 4in Slab without Carpet, ! Name
  ,                                       ! Surface Rendering Name
  {cc2c453b-98ce-410d-9f21-273df7fdbe76}; ! Layer 1

