
OS:Version,
  {f01be3a9-593f-487c-b3cd-3747f4b4055f}, ! Handle
  0.9.3;                                  ! Version Identifier

OS:Construction,
  {6a455cbb-7ace-4b4b-8f6b-379a5d640e62}, ! Handle
  Title 24-2008 Nonres 7 Ext Slab Unheated - 4in Slab without Carpet, ! Name
  ,                                       ! Surface Rendering Name
  {58ca623f-456a-4f50-ba33-fd82675ebc94}; ! Layer 1

OS:Material,
  {58ca623f-456a-4f50-ba33-fd82675ebc94}, ! Handle
  MAT-CC05 4 HW CONCRETE,                 ! Name
  Rough,                                  ! Roughness
  0.1016,                                 ! Thickness {m}
  1.311,                                  ! Conductivity {W/m-K}
  2240,                                   ! Density {kg/m3}
  836.8,                                  ! Specific Heat {J/kg-K}
  0.9,                                    ! Thermal Absorptance
  0.7,                                    ! Solar Absorptance
  0.7;                                    ! Visible Absorptance

OS:ComponentCost:LineItem,
  {ea023965-9bf9-461d-8e6f-43a377c77a6f}, ! Handle
  Title 24-2008 Nonres 7 Ext Slab Unheated - 4in Slab without Carpet, ! Name
  ,                                       ! Type
  Construction,                           ! Line Item Type
  Title 24-2008 Nonres 7 Ext Slab Unheated - 4in Slab without Carpet, ! Item Name
  ,                                       ! Object End Use Key
  ,                                       ! Quantity {dimensionless}
  45.52,                                  ! Material Cost {$}
  CostPerArea;                            ! Material Cost Units

OS:ComponentData,
  {11d9bce8-5cc3-44da-92ca-693ce6407f99}, ! Handle
  Component Data 1,                       ! Name
  {7e847378-6a51-4957-bff4-5b1c1ea1320a}, ! UUID
  {079685be-4798-4754-bdc7-04fc82522cb2}, ! Version UUID
  1363982039,                             ! Creation Timestamp
  1363982039,                             ! Version Timestamp
  {6a455cbb-7ace-4b4b-8f6b-379a5d640e62}, ! Name of Object 1
  {58ca623f-456a-4f50-ba33-fd82675ebc94}, ! Name of Object 2
  {ea023965-9bf9-461d-8e6f-43a377c77a6f}; ! Name of Object 3

