
OS:Version,
  {6ca30ffc-650c-4f2d-ae85-cb55c10a90d1}, ! Handle
  0.9.3;                                  ! Version Identifier

OS:Construction,
  {17111893-bbbd-4a66-b970-0eae5fbcd992}, ! Handle
  90.1-1999 Nonres B17 Roof Attic and Other, ! Name
  ,                                       ! Surface Rendering Name
  {966bff3c-16c5-430c-9c4c-c04493f41600}, ! Layer 1
  {c412cce2-9620-4527-add1-480748edbf1d}, ! Layer 2
  {1988eba3-4468-47ec-982c-844dd16b59a6}, ! Layer 3
  {11c5521b-0556-47eb-8635-4143e1a01632}; ! Layer 4

OS:Material,
  {966bff3c-16c5-430c-9c4c-c04493f41600}, ! Handle
  Wood Shingles,                          ! Name
  VeryRough,                              ! Roughness
  0.0178,                                 ! Thickness {m}
  0.115,                                  ! Conductivity {W/m-K}
  513,                                    ! Density {kg/m3}
  1255,                                   ! Specific Heat {J/kg-K}
  0.9,                                    ! Thermal Absorptance
  0.78,                                   ! Solar Absorptance
  0.78;                                   ! Visible Absorptance

OS:Material,
  {c412cce2-9620-4527-add1-480748edbf1d}, ! Handle
  1IN Wood Decking,                       ! Name
  MediumSmooth,                           ! Roughness
  0.0254,                                 ! Thickness {m}
  0.1211,                                 ! Conductivity {W/m-K}
  593,                                    ! Density {kg/m3}
  2510,                                   ! Specific Heat {J/kg-K}
  0.9,                                    ! Thermal Absorptance
  0.78,                                   ! Solar Absorptance
  0.78;                                   ! Visible Absorptance

OS:Material,
  {1988eba3-4468-47ec-982c-844dd16b59a6}, ! Handle
  Roof Insulation [2],                    ! Name
  MediumRough,                            ! Roughness
  0.221604,                               ! Thickness {m}
  0.049,                                  ! Conductivity {W/m-K}
  265,                                    ! Density {kg/m3}
  836.8,                                  ! Specific Heat {J/kg-K}
  0.9,                                    ! Thermal Absorptance
  0.7,                                    ! Solar Absorptance
  0.7;                                    ! Visible Absorptance

OS:Material,
  {11c5521b-0556-47eb-8635-4143e1a01632}, ! Handle
  1/2IN Gypsum,                           ! Name
  Smooth,                                 ! Roughness
  0.01271,                                ! Thickness {m}
  0.16,                                   ! Conductivity {W/m-K}
  784.9,                                  ! Density {kg/m3}
  830,                                    ! Specific Heat {J/kg-K}
  0.9,                                    ! Thermal Absorptance
  0.92,                                   ! Solar Absorptance
  0.92;                                   ! Visible Absorptance

OS:ComponentCost:LineItem,
  {0b172a4b-96e9-495c-b888-c7aafd221c3b}, ! Handle
  90.1-1999 Nonres B17 Roof Attic and Other, ! Name
  ,                                       ! Type
  Construction,                           ! Line Item Type
  90.1-1999 Nonres B17 Roof Attic and Other, ! Item Name
  ,                                       ! Object End Use Key
  ,                                       ! Quantity {dimensionless}
  33.39,                                  ! Material Cost {$}
  CostPerArea;                            ! Material Cost Units

