
OS:Version,
  {8ee1e876-dc29-4ca2-935a-6d0f17d3d236}, ! Handle
  0.9.3;                                  ! Version Identifier

OS:Construction,
  {f3623d36-f5a2-44fe-8b72-d84b18a754f4}, ! Handle
  90.1-2001 Res B2 Ext Slab Unheated - 8in Slab without Carpet, ! Name
  ,                                       ! Surface Rendering Name
  {ef94082b-8c46-411a-8e76-d1d52b04fdbf}; ! Layer 1

OS:Material,
  {ef94082b-8c46-411a-8e76-d1d52b04fdbf}, ! Handle
  MAT-CC05 8 HW CONCRETE,                 ! Name
  Rough,                                  ! Roughness
  0.20321,                                ! Thickness {m}
  1.311,                                  ! Conductivity {W/m-K}
  2240,                                   ! Density {kg/m3}
  836.8,                                  ! Specific Heat {J/kg-K}
  0.9,                                    ! Thermal Absorptance
  0.7,                                    ! Solar Absorptance
  0.7;                                    ! Visible Absorptance

OS:ComponentCost:LineItem,
  {d708d9ed-1aeb-4181-a79e-5667b8db53b1}, ! Handle
  90.1-2001 Res B2 Ext Slab Unheated - 8in Slab without Carpet, ! Name
  ,                                       ! Type
  Construction,                           ! Line Item Type
  90.1-2001 Res B2 Ext Slab Unheated - 8in Slab without Carpet, ! Item Name
  ,                                       ! Object End Use Key
  ,                                       ! Quantity {dimensionless}
  45.52,                                  ! Material Cost {$}
  CostPerArea;                            ! Material Cost Units

OS:ComponentData,
  {debe6f24-b41b-414c-bed6-30fe316a0bfb}, ! Handle
  Component Data 1,                       ! Name
  {bf876e37-2063-4ad9-b770-e6a5e18679d3}, ! UUID
  {f4e5613e-56ee-45ca-a581-0fad1f72e43c}, ! Version UUID
  1363981453,                             ! Creation Timestamp
  1363981453,                             ! Version Timestamp
  {f3623d36-f5a2-44fe-8b72-d84b18a754f4}, ! Name of Object 1
  {ef94082b-8c46-411a-8e76-d1d52b04fdbf}, ! Name of Object 2
  {d708d9ed-1aeb-4181-a79e-5667b8db53b1}; ! Name of Object 3

