
OS:Version,
  {25544628-d5ad-463f-bc1a-81e09f9a77fd}, ! Handle
  0.9.3;                                  ! Version Identifier

OS:ComponentCost:LineItem,
  {a8b0abb4-0683-42b5-b3ab-bd941f98d4a7}, ! Handle
  Title 24-2008 Nonres 5 Skylight Glass Skylight with Curb, ! Name
  ,                                       ! Type
  Construction,                           ! Line Item Type
  Title 24-2008 Nonres 5 Skylight Glass Skylight with Curb, ! Item Name
  ,                                       ! Object End Use Key
  ,                                       ! Quantity {dimensionless}
  501.798,                                ! Material Cost {$}
  CostPerArea;                            ! Material Cost Units

OS:WindowMaterial:Glazing,
  {5e1bed4e-cf61-49a8-bbff-3273d2e3e64d}, ! Handle
  Theoretical Glass [679],                ! Name
  SpectralAverage,                        ! Optical Data Type
  ,                                       ! Window Glass Spectral Data Set Name
  0.003,                                  ! Thickness {m}
  0.387604,                               ! Solar Transmittance at Normal Incidence
  0.562396,                               ! Front Side Solar Reflectance at Normal Incidence
  0.562396,                               ! Back Side Solar Reflectance at Normal Incidence
  0.400004,                               ! Visible Transmittance at Normal Incidence
  0.549996,                               ! Front Side Visible Reflectance at Normal Incidence
  0.549996,                               ! Back Side Visible Reflectance at Normal Incidence
  0,                                      ! Infrared Transmittance at Normal Incidence
  0.91,                                   ! Front Side Infrared Hemispherical Emissivity
  0.91,                                   ! Back Side Infrared Hemispherical Emissivity
  0.387053;                               ! Conductivity {W/m-K}

OS:Construction,
  {a355582e-a446-4125-9fee-47c827bb3a5a}, ! Handle
  Title 24-2008 Nonres 5 Skylight Glass Skylight with Curb, ! Name
  ,                                       ! Surface Rendering Name
  {5e1bed4e-cf61-49a8-bbff-3273d2e3e64d}; ! Layer 1

