
OS:Version,
  {8bc543a9-e13b-4b3c-8adf-51999b070251}, ! Handle
  0.9.3;                                  ! Version Identifier

OS:Material,
  {b39e5852-d6d0-495c-8c71-5bfb6931a084}, ! Handle
  Roof Insulation [15],                   ! Name
  MediumRough,                            ! Roughness
  0.123565,                               ! Thickness {m}
  0.049,                                  ! Conductivity {W/m-K}
  265,                                    ! Density {kg/m3}
  836.8,                                  ! Specific Heat {J/kg-K}
  0.9,                                    ! Thermal Absorptance
  0.7,                                    ! Solar Absorptance
  0.7;                                    ! Visible Absorptance

OS:Material,
  {0a761e6b-113e-4847-8f6f-863c9d7b2903}, ! Handle
  Metal Roofing,                          ! Name
  MediumSmooth,                           ! Roughness
  0.001524,                               ! Thickness {m}
  45.006,                                 ! Conductivity {W/m-K}
  7680,                                   ! Density {kg/m3}
  418.4,                                  ! Specific Heat {J/kg-K}
  0.9,                                    ! Thermal Absorptance
  0.7,                                    ! Solar Absorptance
  0.3;                                    ! Visible Absorptance

OS:ComponentCost:LineItem,
  {2fa23783-0ac7-4528-8d58-51bdcaf7bcf5}, ! Handle
  90.1-2007 Res 4B Roof Metal Building,   ! Name
  ,                                       ! Type
  Construction,                           ! Line Item Type
  90.1-2007 Res 4B Roof Metal Building,   ! Item Name
  ,                                       ! Object End Use Key
  ,                                       ! Quantity {dimensionless}
  38.21,                                  ! Material Cost {$}
  CostPerArea;                            ! Material Cost Units

OS:Construction,
  {c86bd4c1-eb2c-4b73-91e9-e65ae95d0b57}, ! Handle
  90.1-2007 Res 4B Roof Metal Building,   ! Name
  ,                                       ! Surface Rendering Name
  {0a761e6b-113e-4847-8f6f-863c9d7b2903}, ! Layer 1
  {b39e5852-d6d0-495c-8c71-5bfb6931a084}; ! Layer 2

