
OS:Version,
  {69cfad35-2cb1-47b9-b77f-574c52a694ba}, !- Handle
  1.1.0;                                  !- Version Identifier

OS:Construction,
  {55c5a95b-c7b4-4168-adc1-84e55965f325}, !- Handle
  Sgl Bronze 6mm,                         !- Name
  ,                                       !- Surface Rendering Name
  {cc893a38-b00e-455e-8c19-2b701bab8bb1}; !- Layer 1

OS:WindowMaterial:Glazing,
  {cc893a38-b00e-455e-8c19-2b701bab8bb1}, !- Handle
  BRONZE 6MM,                             !- Name
  SpectralAverage,                        !- Optical Data Type
  ,                                       !- Window Glass Spectral Data Set Name
  0.006,                                  !- Thickness {m}
  0.482,                                  !- Solar Transmittance at Normal Incidence
  0.054,                                  !- Front Side Solar Reflectance at Normal Incidence
  0.054,                                  !- Back Side Solar Reflectance at Normal Incidence
  0.534,                                  !- Visible Transmittance at Normal Incidence
  0.057,                                  !- Front Side Visible Reflectance at Normal Incidence
  0.057,                                  !- Back Side Visible Reflectance at Normal Incidence
  0,                                      !- Infrared Transmittance at Normal Incidence
  0.84,                                   !- Front Side Infrared Hemispherical Emissivity
  0.84,                                   !- Back Side Infrared Hemispherical Emissivity
  0.9;                                    !- Conductivity {W/m-K}

