
OS:Version,
  {8b785a2e-3713-4d57-a4fb-615907613f78}, ! Handle
  0.9.3;                                  ! Version Identifier

OS:Material,
  {2f1d5dd5-bca5-4b15-935a-76864f364aca}, ! Handle
  Roof Membrane,                          ! Name
  VeryRough,                              ! Roughness
  0.0095,                                 ! Thickness {m}
  0.16,                                   ! Conductivity {W/m-K}
  1121.29,                                ! Density {kg/m3}
  1460,                                   ! Specific Heat {J/kg-K}
  0.9,                                    ! Thermal Absorptance
  0.7,                                    ! Solar Absorptance
  0.7;                                    ! Visible Absorptance

OS:Material,
  {d8e10c72-517b-4c82-b10f-4e1bf2e27176}, ! Handle
  Metal Decking,                          ! Name
  MediumSmooth,                           ! Roughness
  0.001524,                               ! Thickness {m}
  45.006,                                 ! Conductivity {W/m-K}
  7680,                                   ! Density {kg/m3}
  418.4,                                  ! Specific Heat {J/kg-K}
  0.9,                                    ! Thermal Absorptance
  0.7,                                    ! Solar Absorptance
  0.3;                                    ! Visible Absorptance

OS:ComponentCost:LineItem,
  {9ec0ff7e-d450-49b2-8499-5877d713c865}, ! Handle
  AEDG K12 Nonres 6B Roof IEAD,           ! Name
  ,                                       ! Type
  Construction,                           ! Line Item Type
  AEDG K12 Nonres 6B Roof IEAD,           ! Item Name
  ,                                       ! Object End Use Key
  ,                                       ! Quantity {dimensionless}
  98.49,                                  ! Material Cost {$}
  CostPerArea;                            ! Material Cost Units

OS:Construction,
  {60c9ba02-31c2-438b-afa5-101e22e0b768}, ! Handle
  AEDG K12 Nonres 6B Roof IEAD,           ! Name
  ,                                       ! Surface Rendering Name
  {2f1d5dd5-bca5-4b15-935a-76864f364aca}, ! Layer 1
  {a0fbfb43-d81c-4b80-944d-d977ad04063b}, ! Layer 2
  {d8e10c72-517b-4c82-b10f-4e1bf2e27176}; ! Layer 3

OS:Material,
  {a0fbfb43-d81c-4b80-944d-d977ad04063b}, ! Handle
  Roof Insulation,                        ! Name
  MediumRough,                            ! Roughness
  0.124958,                               ! Thickness {m}
  0.049,                                  ! Conductivity {W/m-K}
  265,                                    ! Density {kg/m3}
  836.8,                                  ! Specific Heat {J/kg-K}
  0.9,                                    ! Thermal Absorptance
  0.7,                                    ! Solar Absorptance
  0.7;                                    ! Visible Absorptance

