
OS:Version,
  {f9ed8717-d4c9-4a03-9f40-0e98642d1e1d}, ! Handle
  0.9.3;                                  ! Version Identifier

OS:Material,
  {7f7aebb2-bcd8-4f82-a296-f31ed369f974}, ! Handle
  8IN Concrete HW,                        ! Name
  MediumRough,                            ! Roughness
  0.2033,                                 ! Thickness {m}
  1.7296,                                 ! Conductivity {W/m-K}
  2243,                                   ! Density {kg/m3}
  837,                                    ! Specific Heat {J/kg-K}
  0.9,                                    ! Thermal Absorptance
  0.65,                                   ! Solar Absorptance
  0.65;                                   ! Visible Absorptance

OS:Material,
  {30893f1c-16ca-4346-9c2a-40afbe74bbe3}, ! Handle
  1/2IN Gypsum,                           ! Name
  Smooth,                                 ! Roughness
  0.01271,                                ! Thickness {m}
  0.16,                                   ! Conductivity {W/m-K}
  784.9,                                  ! Density {kg/m3}
  830,                                    ! Specific Heat {J/kg-K}
  0.9,                                    ! Thermal Absorptance
  0.92,                                   ! Solar Absorptance
  0.92;                                   ! Visible Absorptance

OS:Construction,
  {12208c52-fce9-4a7e-a7e2-b6d9f7091d6c}, ! Handle
  90.1-2001 Res B12 Ext Wall Mass,        ! Name
  ,                                       ! Surface Rendering Name
  {1829b03b-d5e2-44b0-a681-198ae0f01efb}, ! Layer 1
  {7f7aebb2-bcd8-4f82-a296-f31ed369f974}, ! Layer 2
  {2fc9e008-b299-40dd-89b7-ffdd0af733d3}, ! Layer 3
  {30893f1c-16ca-4346-9c2a-40afbe74bbe3}; ! Layer 4

OS:Material,
  {1829b03b-d5e2-44b0-a681-198ae0f01efb}, ! Handle
  1IN Stucco,                             ! Name
  Smooth,                                 ! Roughness
  0.0253,                                 ! Thickness {m}
  0.6918,                                 ! Conductivity {W/m-K}
  1858,                                   ! Density {kg/m3}
  837,                                    ! Specific Heat {J/kg-K}
  0.9,                                    ! Thermal Absorptance
  0.92,                                   ! Solar Absorptance
  0.92;                                   ! Visible Absorptance

OS:Material,
  {2fc9e008-b299-40dd-89b7-ffdd0af733d3}, ! Handle
  Wall Insulation [5],                    ! Name
  MediumRough,                            ! Roughness
  0.0453274,                              ! Thickness {m}
  0.0432,                                 ! Conductivity {W/m-K}
  91,                                     ! Density {kg/m3}
  837,                                    ! Specific Heat {J/kg-K}
  0.9,                                    ! Thermal Absorptance
  0.5,                                    ! Solar Absorptance
  0.5;                                    ! Visible Absorptance

OS:ComponentCost:LineItem,
  {6da162cf-823f-408d-9f8e-71a1a9d4dcca}, ! Handle
  90.1-2001 Res B12 Ext Wall Mass,        ! Name
  ,                                       ! Type
  Construction,                           ! Line Item Type
  90.1-2001 Res B12 Ext Wall Mass,        ! Item Name
  ,                                       ! Object End Use Key
  ,                                       ! Quantity {dimensionless}
  61.418,                                 ! Material Cost {$}
  CostPerArea;                            ! Material Cost Units

