
OS:Version,
  {49911efd-1979-4ab3-ae45-9a2696e7673d}, ! Handle
  0.9.3;                                  ! Version Identifier

OS:Material,
  {73bf31a8-7740-469a-9833-652b073d98e3}, ! Handle
  MAT-CC05 4 HW CONCRETE,                 ! Name
  Rough,                                  ! Roughness
  0.1016,                                 ! Thickness {m}
  1.311,                                  ! Conductivity {W/m-K}
  2240,                                   ! Density {kg/m3}
  836.8,                                  ! Specific Heat {J/kg-K}
  0.9,                                    ! Thermal Absorptance
  0.7,                                    ! Solar Absorptance
  0.7;                                    ! Visible Absorptance

OS:ComponentCost:LineItem,
  {d7495039-5e18-4c57-83c8-c87f331c5231}, ! Handle
  90.1-1999 Res B16 Ext Slab Unheated - 4in Slab without Carpet, ! Name
  ,                                       ! Type
  Construction,                           ! Line Item Type
  90.1-1999 Res B16 Ext Slab Unheated - 4in Slab without Carpet, ! Item Name
  ,                                       ! Object End Use Key
  ,                                       ! Quantity {dimensionless}
  45.52,                                  ! Material Cost {$}
  CostPerArea;                            ! Material Cost Units

OS:Construction,
  {9834a97a-7502-448b-8779-35244b06ccc4}, ! Handle
  90.1-1999 Res B16 Ext Slab Unheated - 4in Slab without Carpet, ! Name
  ,                                       ! Surface Rendering Name
  {73bf31a8-7740-469a-9833-652b073d98e3}; ! Layer 1

