
OS:Version,
  {e4194d19-506c-4692-861f-21a715f21a88}, ! Handle
  0.9.3;                                  ! Version Identifier

OS:Construction,
  {d37be3ea-5cd5-4cf4-96c7-596849a37cb4}, ! Handle
  90.1-2004 Res 5B Ext Slab Unheated - 4in Slab without Carpet, ! Name
  ,                                       ! Surface Rendering Name
  {793bff00-0f6f-4f7a-82e6-b638caa0f76e}; ! Layer 1

OS:Material,
  {793bff00-0f6f-4f7a-82e6-b638caa0f76e}, ! Handle
  MAT-CC05 4 HW CONCRETE,                 ! Name
  Rough,                                  ! Roughness
  0.1016,                                 ! Thickness {m}
  1.311,                                  ! Conductivity {W/m-K}
  2240,                                   ! Density {kg/m3}
  836.8,                                  ! Specific Heat {J/kg-K}
  0.9,                                    ! Thermal Absorptance
  0.7,                                    ! Solar Absorptance
  0.7;                                    ! Visible Absorptance

OS:ComponentCost:LineItem,
  {5acbd51b-e063-4545-ad0c-e3b1193e26ae}, ! Handle
  90.1-2004 Res 5B Ext Slab Unheated - 4in Slab without Carpet, ! Name
  ,                                       ! Type
  Construction,                           ! Line Item Type
  90.1-2004 Res 5B Ext Slab Unheated - 4in Slab without Carpet, ! Item Name
  ,                                       ! Object End Use Key
  ,                                       ! Quantity {dimensionless}
  45.52,                                  ! Material Cost {$}
  CostPerArea;                            ! Material Cost Units

