
OS:Version,
  {37e04549-dbc7-40b4-bb17-ae8651acd938}, ! Handle
  0.9.3;                                  ! Version Identifier

OS:Construction,
  {79cad4e7-7911-4eed-8e6b-a7d9a582bfe6}, ! Handle
  90.1 Windows Window Fixed 2111 Mtl-Clr-Std-Clr, ! Name
  ,                                       ! Surface Rendering Name
  {feeed46a-24d4-4290-8cfa-eb2e792210d3}; ! Layer 1

OS:WindowMaterial:Glazing,
  {feeed46a-24d4-4290-8cfa-eb2e792210d3}, ! Handle
  Theoretical Glass [262],                ! Name
  SpectralAverage,                        ! Optical Data Type
  ,                                       ! Window Glass Spectral Data Set Name
  0.003,                                  ! Thickness {m}
  0.710613,                               ! Solar Transmittance at Normal Incidence
  0.239387,                               ! Front Side Solar Reflectance at Normal Incidence
  0.239387,                               ! Back Side Solar Reflectance at Normal Incidence
  0.70976,                                ! Visible Transmittance at Normal Incidence
  0.24024,                                ! Front Side Visible Reflectance at Normal Incidence
  0.24024,                                ! Back Side Visible Reflectance at Normal Incidence
  0,                                      ! Infrared Transmittance at Normal Incidence
  0.9,                                    ! Front Side Infrared Hemispherical Emissivity
  0.9,                                    ! Back Side Infrared Hemispherical Emissivity
  0.0349903;                              ! Conductivity {W/m-K}

OS:ComponentCost:LineItem,
  {d171c6ea-ab0b-494f-a90c-3fb8bdf404e3}, ! Handle
  90.1 Windows Window Fixed 2111 Mtl-Clr-Std-Clr, ! Name
  ,                                       ! Type
  Construction,                           ! Line Item Type
  90.1 Windows Window Fixed 2111 Mtl-Clr-Std-Clr, ! Item Name
  ,                                       ! Object End Use Key
  ,                                       ! Quantity {dimensionless}
  0,                                      ! Material Cost {$}
  CostPerArea;                            ! Material Cost Units

OS:ComponentData,
  {a8d3dc08-2646-483a-a9af-77db3ea0e4b8}, ! Handle
  Component Data 1,                       ! Name
  {f8c6d70e-c62d-411f-8e8e-bc8f1e11ec9a}, ! UUID
  {4cddd83a-a4eb-4d7d-beb4-a7f0008ab65b}, ! Version UUID
  1363981001,                             ! Creation Timestamp
  1363981001,                             ! Version Timestamp
  {79cad4e7-7911-4eed-8e6b-a7d9a582bfe6}, ! Name of Object 1
  {feeed46a-24d4-4290-8cfa-eb2e792210d3}, ! Name of Object 2
  {d171c6ea-ab0b-494f-a90c-3fb8bdf404e3}; ! Name of Object 3

