
OS:Version,
  {84838f8d-22bb-430b-8389-a7cee907ae8c}, ! Handle
  0.9.3;                                  ! Version Identifier

OS:Construction,
  {cf642687-c2fb-409d-80a4-d046bdd6e662}, ! Handle
  90.1 Windows Window Fixed 2111 Mtl-Clr-Std-Clr, ! Name
  ,                                       ! Surface Rendering Name
  {daaa1dbc-cce9-482d-8d1e-0f58284768bc}; ! Layer 1

OS:WindowMaterial:Glazing,
  {daaa1dbc-cce9-482d-8d1e-0f58284768bc}, ! Handle
  Theoretical Glass [262],                ! Name
  SpectralAverage,                        ! Optical Data Type
  ,                                       ! Window Glass Spectral Data Set Name
  0.003,                                  ! Thickness {m}
  0.710613,                               ! Solar Transmittance at Normal Incidence
  0.239387,                               ! Front Side Solar Reflectance at Normal Incidence
  0.239387,                               ! Back Side Solar Reflectance at Normal Incidence
  0.70976,                                ! Visible Transmittance at Normal Incidence
  0.24024,                                ! Front Side Visible Reflectance at Normal Incidence
  0.24024,                                ! Back Side Visible Reflectance at Normal Incidence
  0,                                      ! Infrared Transmittance at Normal Incidence
  0.9,                                    ! Front Side Infrared Hemispherical Emissivity
  0.9,                                    ! Back Side Infrared Hemispherical Emissivity
  0.0349903;                              ! Conductivity {W/m-K}

OS:ComponentCost:LineItem,
  {b676c664-c52a-4584-8062-24c17f971a09}, ! Handle
  90.1 Windows Window Fixed 2111 Mtl-Clr-Std-Clr, ! Name
  ,                                       ! Type
  Construction,                           ! Line Item Type
  90.1 Windows Window Fixed 2111 Mtl-Clr-Std-Clr, ! Item Name
  ,                                       ! Object End Use Key
  ,                                       ! Quantity {dimensionless}
  0,                                      ! Material Cost {$}
  CostPerArea;                            ! Material Cost Units

