
OS:Version,
  {dac6b6ba-b99b-48c1-883a-3bcc910b9b67}, ! Handle
  0.9.3;                                  ! Version Identifier

OS:Material,
  {c4332a37-7428-48c0-b834-23b957bd5461}, ! Handle
  1/2IN Gypsum Bottom,                    ! Name
  Smooth,                                 ! Roughness
  0.01271,                                ! Thickness {m}
  0.16,                                   ! Conductivity {W/m-K}
  784.9,                                  ! Density {kg/m3}
  830,                                    ! Specific Heat {J/kg-K}
  0.9,                                    ! Thermal Absorptance
  0.92,                                   ! Solar Absorptance
  0.92;                                   ! Visible Absorptance

OS:ComponentCost:LineItem,
  {1b1b37c5-1f69-4f30-9e20-37ce8a0d789d}, ! Handle
  90.1-2007 Res 4B Attic Floor,           ! Name
  ,                                       ! Type
  Construction,                           ! Line Item Type
  90.1-2007 Res 4B Attic Floor,           ! Item Name
  ,                                       ! Object End Use Key
  ,                                       ! Quantity {dimensionless}
  35.009,                                 ! Material Cost {$}
  CostPerArea;                            ! Material Cost Units

OS:Construction,
  {a8132757-fa61-4a10-a5e2-9e0524a80283}, ! Handle
  90.1-2007 Res 4B Attic Floor,           ! Name
  ,                                       ! Surface Rendering Name
  {13027c97-0377-41fe-9ac7-b264de613b14}, ! Layer 1
  {7a8db1fe-2d77-4610-9946-c297e85e58ac}, ! Layer 2
  {c4332a37-7428-48c0-b834-23b957bd5461}; ! Layer 3

OS:Material,
  {13027c97-0377-41fe-9ac7-b264de613b14}, ! Handle
  1/2IN Gypsum Top,                       ! Name
  Smooth,                                 ! Roughness
  0.01271,                                ! Thickness {m}
  0.16,                                   ! Conductivity {W/m-K}
  784.9,                                  ! Density {kg/m3}
  830,                                    ! Specific Heat {J/kg-K}
  0.9,                                    ! Thermal Absorptance
  0.92,                                   ! Solar Absorptance
  0.92;                                   ! Visible Absorptance

OS:Material,
  {7a8db1fe-2d77-4610-9946-c297e85e58ac}, ! Handle
  AtticFloor Insulation [1],              ! Name
  MediumRough,                            ! Roughness
  0.303719,                               ! Thickness {m}
  0.049,                                  ! Conductivity {W/m-K}
  265,                                    ! Density {kg/m3}
  836.8,                                  ! Specific Heat {J/kg-K}
  0.9,                                    ! Thermal Absorptance
  0.7,                                    ! Solar Absorptance
  0.7;                                    ! Visible Absorptance

