
OS:Version,
  {1e42c7f0-6082-4091-9e18-6c7d509cf198}, ! Handle
  0.9.3;                                  ! Version Identifier

OS:Construction,
  {51911c9e-9898-49f0-87c3-f1efcc162ad0}, ! Handle
  90.1-2001 Res B5 Ext Slab Unheated - 8in Slab without Carpet, ! Name
  ,                                       ! Surface Rendering Name
  {23ebe313-76b8-46af-8dec-25f282ee2b88}; ! Layer 1

OS:Material,
  {23ebe313-76b8-46af-8dec-25f282ee2b88}, ! Handle
  MAT-CC05 8 HW CONCRETE,                 ! Name
  Rough,                                  ! Roughness
  0.20321,                                ! Thickness {m}
  1.311,                                  ! Conductivity {W/m-K}
  2240,                                   ! Density {kg/m3}
  836.8,                                  ! Specific Heat {J/kg-K}
  0.9,                                    ! Thermal Absorptance
  0.7,                                    ! Solar Absorptance
  0.7;                                    ! Visible Absorptance

OS:ComponentCost:LineItem,
  {546fd310-8174-4487-9988-6f442ce1b345}, ! Handle
  90.1-2001 Res B5 Ext Slab Unheated - 8in Slab without Carpet, ! Name
  ,                                       ! Type
  Construction,                           ! Line Item Type
  90.1-2001 Res B5 Ext Slab Unheated - 8in Slab without Carpet, ! Item Name
  ,                                       ! Object End Use Key
  ,                                       ! Quantity {dimensionless}
  45.52,                                  ! Material Cost {$}
  CostPerArea;                            ! Material Cost Units

OS:ComponentData,
  {4cd3dcd1-964a-487b-aeaf-ff3f2c04b34e}, ! Handle
  Component Data 1,                       ! Name
  {6f3641fb-5800-47e7-88f1-f2eab60dbd82}, ! UUID
  {b36bb140-9d29-4165-a7ea-ec0110b13921}, ! Version UUID
  1363981471,                             ! Creation Timestamp
  1363981471,                             ! Version Timestamp
  {51911c9e-9898-49f0-87c3-f1efcc162ad0}, ! Name of Object 1
  {23ebe313-76b8-46af-8dec-25f282ee2b88}, ! Name of Object 2
  {546fd310-8174-4487-9988-6f442ce1b345}; ! Name of Object 3

