
OS:Version,
  {079a37c9-74da-4315-a8b0-35e0c8c0986f}, ! Handle
  0.9.3;                                  ! Version Identifier

OS:Material,
  {e0b33e57-2fa8-4bbd-8237-ca2be7dc4259}, ! Handle
  GP01 1/2 GYPSUM,                        ! Name
  Smooth,                                 ! Roughness
  0.01271,                                ! Thickness {m}
  0.16,                                   ! Conductivity {W/m-K}
  800,                                    ! Density {kg/m3}
  1090,                                   ! Specific Heat {J/kg-K}
  0.9,                                    ! Thermal Absorptance
  0.7,                                    ! Solar Absorptance
  0.5;                                    ! Visible Absorptance

OS:ComponentCost:LineItem,
  {3757922e-f541-470b-8a8f-5d61adb256b8}, ! Handle
  90.1-2001 Res B9 Int Wall,              ! Name
  ,                                       ! Type
  Construction,                           ! Line Item Type
  90.1-2001 Res B9 Int Wall,              ! Item Name
  ,                                       ! Object End Use Key
  ,                                       ! Quantity {dimensionless}
  0,                                      ! Material Cost {$}
  CostPerArea;                            ! Material Cost Units

OS:Construction,
  {027b067b-647c-424a-87d2-b4724c3b5bee}, ! Handle
  90.1-2001 Res B9 Int Wall,              ! Name
  ,                                       ! Surface Rendering Name
  {e0b33e57-2fa8-4bbd-8237-ca2be7dc4259}, ! Layer 1
  {e0b33e57-2fa8-4bbd-8237-ca2be7dc4259}; ! Layer 2

OS:Material,
  {eef11011-3c11-4b22-9c19-96a2676e7c10}, ! Handle
  GP01 1/2 GYPSUM 1,                      ! Name
  Smooth,                                 ! Roughness
  0.01271,                                ! Thickness {m}
  0.16,                                   ! Conductivity {W/m-K}
  800,                                    ! Density {kg/m3}
  1090,                                   ! Specific Heat {J/kg-K}
  0.9,                                    ! Thermal Absorptance
  0.7,                                    ! Solar Absorptance
  0.5;                                    ! Visible Absorptance

