
OS:Version,
  {7e02f260-3e00-4ee1-97af-7062a2e519a1}, ! Handle
  0.9.3;                                  ! Version Identifier

OS:ComponentCost:LineItem,
  {a4384047-c7b7-4688-bfbd-470dcebda3e3}, ! Handle
  189.1-2009 Nonres 8A Attic Floor,       ! Name
  ,                                       ! Type
  Construction,                           ! Line Item Type
  189.1-2009 Nonres 8A Attic Floor,       ! Item Name
  ,                                       ! Object End Use Key
  ,                                       ! Quantity {dimensionless}
  38.314,                                 ! Material Cost {$}
  CostPerArea;                            ! Material Cost Units

OS:Material,
  {82e4b7ac-6f84-4856-abee-f6226a41841e}, ! Handle
  AtticFloor Insulation [5],              ! Name
  MediumRough,                            ! Roughness
  0.47417,                                ! Thickness {m}
  0.049,                                  ! Conductivity {W/m-K}
  265,                                    ! Density {kg/m3}
  836.8,                                  ! Specific Heat {J/kg-K}
  0.9,                                    ! Thermal Absorptance
  0.7,                                    ! Solar Absorptance
  0.7;                                    ! Visible Absorptance

OS:Material,
  {ee3c2c3b-a408-4bfa-a694-7a73cf7e87ac}, ! Handle
  1/2IN Gypsum Top,                       ! Name
  Smooth,                                 ! Roughness
  0.01271,                                ! Thickness {m}
  0.16,                                   ! Conductivity {W/m-K}
  784.9,                                  ! Density {kg/m3}
  830,                                    ! Specific Heat {J/kg-K}
  0.9,                                    ! Thermal Absorptance
  0.92,                                   ! Solar Absorptance
  0.92;                                   ! Visible Absorptance

OS:Construction,
  {c02f961d-ebff-4002-90a6-02aed8bc766d}, ! Handle
  189.1-2009 Nonres 8A Attic Floor,       ! Name
  ,                                       ! Surface Rendering Name
  {ee3c2c3b-a408-4bfa-a694-7a73cf7e87ac}, ! Layer 1
  {82e4b7ac-6f84-4856-abee-f6226a41841e}, ! Layer 2
  {5ed28a13-865d-4835-98c6-e762d6e379f3}; ! Layer 3

OS:Material,
  {5ed28a13-865d-4835-98c6-e762d6e379f3}, ! Handle
  1/2IN Gypsum Bottom,                    ! Name
  Smooth,                                 ! Roughness
  0.01271,                                ! Thickness {m}
  0.16,                                   ! Conductivity {W/m-K}
  784.9,                                  ! Density {kg/m3}
  830,                                    ! Specific Heat {J/kg-K}
  0.9,                                    ! Thermal Absorptance
  0.92,                                   ! Solar Absorptance
  0.92;                                   ! Visible Absorptance

