
OS:Version,
  {40173537-9ca4-4c7f-a904-7050d7e7ed45}, ! Handle
  0.9.3;                                  ! Version Identifier

OS:ComponentCost:LineItem,
  {1bf2022c-9592-480c-9615-23fd5b1077ab}, ! Handle
  90.1-1999 Nonres B11 Roof Metal Building, ! Name
  ,                                       ! Type
  Construction,                           ! Line Item Type
  90.1-1999 Nonres B11 Roof Metal Building, ! Item Name
  ,                                       ! Object End Use Key
  ,                                       ! Quantity {dimensionless}
  38.206,                                 ! Material Cost {$}
  CostPerArea;                            ! Material Cost Units

OS:Material,
  {9516f135-2d8a-46cc-ac0e-bae0a3c32d38}, ! Handle
  Roof Insulation [1],                    ! Name
  MediumRough,                            ! Roughness
  0.123533,                               ! Thickness {m}
  0.049,                                  ! Conductivity {W/m-K}
  265,                                    ! Density {kg/m3}
  836.8,                                  ! Specific Heat {J/kg-K}
  0.9,                                    ! Thermal Absorptance
  0.7,                                    ! Solar Absorptance
  0.7;                                    ! Visible Absorptance

OS:Construction,
  {0988db44-058e-4492-8cb2-cfbc46df8193}, ! Handle
  90.1-1999 Nonres B11 Roof Metal Building, ! Name
  ,                                       ! Surface Rendering Name
  {5d810d9f-4109-477f-951e-40cb4efac3c4}, ! Layer 1
  {9516f135-2d8a-46cc-ac0e-bae0a3c32d38}; ! Layer 2

OS:Material,
  {5d810d9f-4109-477f-951e-40cb4efac3c4}, ! Handle
  Metal Roofing,                          ! Name
  MediumSmooth,                           ! Roughness
  0.001524,                               ! Thickness {m}
  45.006,                                 ! Conductivity {W/m-K}
  7680,                                   ! Density {kg/m3}
  418.4,                                  ! Specific Heat {J/kg-K}
  0.9,                                    ! Thermal Absorptance
  0.7,                                    ! Solar Absorptance
  0.3;                                    ! Visible Absorptance

