
OS:Version,
  {af48651c-59d2-4902-b9f7-e769831afde7}, ! Handle
  0.9.3;                                  ! Version Identifier

OS:ComponentCost:LineItem,
  {cf5a4a5c-e7be-4881-8e5b-e907cb5b52b8}, ! Handle
  90.1-2001 Res B14 Ext Wall Wood-Framed and Other, ! Name
  ,                                       ! Type
  Construction,                           ! Line Item Type
  90.1-2001 Res B14 Ext Wall Wood-Framed and Other, ! Item Name
  ,                                       ! Object End Use Key
  ,                                       ! Quantity {dimensionless}
  73.056,                                 ! Material Cost {$}
  CostPerArea;                            ! Material Cost Units

OS:Material,
  {9cb3d51f-34de-4b39-884c-c18ec951d07e}, ! Handle
  Wood Siding,                            ! Name
  MediumSmooth,                           ! Roughness
  0.01,                                   ! Thickness {m}
  0.11,                                   ! Conductivity {W/m-K}
  544.62,                                 ! Density {kg/m3}
  1210,                                   ! Specific Heat {J/kg-K}
  0.9,                                    ! Thermal Absorptance
  0.78,                                   ! Solar Absorptance
  0.78;                                   ! Visible Absorptance

OS:Material,
  {d0409903-c448-4819-9a0e-10a5f72c8aed}, ! Handle
  Wall Insulation [2],                    ! Name
  MediumRough,                            ! Roughness
  0.0746874,                              ! Thickness {m}
  0.045,                                  ! Conductivity {W/m-K}
  265,                                    ! Density {kg/m3}
  836.8,                                  ! Specific Heat {J/kg-K}
  0.9,                                    ! Thermal Absorptance
  0.7,                                    ! Solar Absorptance
  0.7;                                    ! Visible Absorptance

OS:Construction,
  {f8429db2-bf78-4c66-a0ed-2c950b217711}, ! Handle
  90.1-2001 Res B14 Ext Wall Wood-Framed and Other, ! Name
  ,                                       ! Surface Rendering Name
  {9cb3d51f-34de-4b39-884c-c18ec951d07e}, ! Layer 1
  {d0409903-c448-4819-9a0e-10a5f72c8aed}, ! Layer 2
  {e3a081d2-82f8-4702-a564-a883203f005a}; ! Layer 3

OS:Material,
  {e3a081d2-82f8-4702-a564-a883203f005a}, ! Handle
  1/2IN Gypsum,                           ! Name
  Smooth,                                 ! Roughness
  0.01271,                                ! Thickness {m}
  0.16,                                   ! Conductivity {W/m-K}
  784.9,                                  ! Density {kg/m3}
  830,                                    ! Specific Heat {J/kg-K}
  0.9,                                    ! Thermal Absorptance
  0.92,                                   ! Solar Absorptance
  0.92;                                   ! Visible Absorptance

