
OS:Version,
  {0876d20d-7f92-4e38-a593-5352ee07a574}, ! Handle
  0.9.3;                                  ! Version Identifier

OS:Construction,
  {5f1190d1-be77-4248-8014-0c73959214b0}, ! Handle
  AEDG-SmOffice 7A Ext Slab Unheated - 4in Slab without Carpet, ! Name
  ,                                       ! Surface Rendering Name
  {010eca42-8e0e-418a-b92e-ab3ab220a11c}; ! Layer 1

OS:Material,
  {010eca42-8e0e-418a-b92e-ab3ab220a11c}, ! Handle
  MAT-CC05 4 HW CONCRETE,                 ! Name
  Rough,                                  ! Roughness
  0.1016,                                 ! Thickness {m}
  1.311,                                  ! Conductivity {W/m-K}
  2240,                                   ! Density {kg/m3}
  836.8,                                  ! Specific Heat {J/kg-K}
  0.9,                                    ! Thermal Absorptance
  0.7,                                    ! Solar Absorptance
  0.7;                                    ! Visible Absorptance

OS:ComponentCost:LineItem,
  {5d5c4516-44d5-4c94-a183-8429b7a0bfaf}, ! Handle
  AEDG-SmOffice 7A Ext Slab Unheated - 4in Slab without Carpet, ! Name
  ,                                       ! Type
  Construction,                           ! Line Item Type
  AEDG-SmOffice 7A Ext Slab Unheated - 4in Slab without Carpet, ! Item Name
  ,                                       ! Object End Use Key
  ,                                       ! Quantity {dimensionless}
  45.52,                                  ! Material Cost {$}
  CostPerArea;                            ! Material Cost Units

OS:ComponentData,
  {c9b37839-2cfa-480b-b830-7092db9cd1c8}, ! Handle
  Component Data 1,                       ! Name
  {5555ad68-4e82-4ac2-aaaf-42fc04b171eb}, ! UUID
  {56d18c50-54d7-49a7-887f-46cc878b2312}, ! Version UUID
  1363981965,                             ! Creation Timestamp
  1363981965,                             ! Version Timestamp
  {5f1190d1-be77-4248-8014-0c73959214b0}, ! Name of Object 1
  {010eca42-8e0e-418a-b92e-ab3ab220a11c}, ! Name of Object 2
  {5d5c4516-44d5-4c94-a183-8429b7a0bfaf}; ! Name of Object 3

