
OS:Version,
  {aa7b3410-6eb5-4096-b6eb-ab0d18fdf0a8}, ! Handle
  0.9.3;                                  ! Version Identifier

OS:Construction,
  {c9e654a7-8848-44ec-8004-862a2329e55f}, ! Handle
  AEDG-SmOffice 7A Ext Slab Unheated - 4in Slab without Carpet, ! Name
  ,                                       ! Surface Rendering Name
  {f0dd07f4-8495-4e01-a07c-b4ea6a5c0ab1}; ! Layer 1

OS:Material,
  {f0dd07f4-8495-4e01-a07c-b4ea6a5c0ab1}, ! Handle
  MAT-CC05 4 HW CONCRETE,                 ! Name
  Rough,                                  ! Roughness
  0.1016,                                 ! Thickness {m}
  1.311,                                  ! Conductivity {W/m-K}
  2240,                                   ! Density {kg/m3}
  836.8,                                  ! Specific Heat {J/kg-K}
  0.9,                                    ! Thermal Absorptance
  0.7,                                    ! Solar Absorptance
  0.7;                                    ! Visible Absorptance

OS:ComponentCost:LineItem,
  {fb7620f2-d996-449b-a9b8-b19542141540}, ! Handle
  AEDG-SmOffice 7A Ext Slab Unheated - 4in Slab without Carpet, ! Name
  ,                                       ! Type
  Construction,                           ! Line Item Type
  AEDG-SmOffice 7A Ext Slab Unheated - 4in Slab without Carpet, ! Item Name
  ,                                       ! Object End Use Key
  ,                                       ! Quantity {dimensionless}
  45.52,                                  ! Material Cost {$}
  CostPerArea;                            ! Material Cost Units

