
OS:Version,
  {9aee681b-fe1e-462c-abcd-5f20623428b4}, ! Handle
  0.9.3;                                  ! Version Identifier

OS:Construction,
  {f0c18d2f-39f2-4167-94fe-08a56a19ee47}, ! Handle
  90.1-2004 Nonres 8A Attic Floor,        ! Name
  ,                                       ! Surface Rendering Name
  {d885dab1-5ac4-41ec-9333-aca58dd1926d}, ! Layer 1
  {17e0b790-a2ec-4982-8a73-17085de46ed5}, ! Layer 2
  {1375da3f-498a-4a65-92d5-76c9c8d95b69}; ! Layer 3

OS:Material,
  {d885dab1-5ac4-41ec-9333-aca58dd1926d}, ! Handle
  1/2IN Gypsum Top,                       ! Name
  Smooth,                                 ! Roughness
  0.01271,                                ! Thickness {m}
  0.16,                                   ! Conductivity {W/m-K}
  784.9,                                  ! Density {kg/m3}
  830,                                    ! Specific Heat {J/kg-K}
  0.9,                                    ! Thermal Absorptance
  0.92,                                   ! Solar Absorptance
  0.92;                                   ! Visible Absorptance

OS:Material,
  {17e0b790-a2ec-4982-8a73-17085de46ed5}, ! Handle
  AtticFloor Insulation [1],              ! Name
  MediumRough,                            ! Roughness
  0.303719,                               ! Thickness {m}
  0.049,                                  ! Conductivity {W/m-K}
  265,                                    ! Density {kg/m3}
  836.8,                                  ! Specific Heat {J/kg-K}
  0.9,                                    ! Thermal Absorptance
  0.7,                                    ! Solar Absorptance
  0.7;                                    ! Visible Absorptance

OS:Material,
  {1375da3f-498a-4a65-92d5-76c9c8d95b69}, ! Handle
  1/2IN Gypsum Bottom,                    ! Name
  Smooth,                                 ! Roughness
  0.01271,                                ! Thickness {m}
  0.16,                                   ! Conductivity {W/m-K}
  784.9,                                  ! Density {kg/m3}
  830,                                    ! Specific Heat {J/kg-K}
  0.9,                                    ! Thermal Absorptance
  0.92,                                   ! Solar Absorptance
  0.92;                                   ! Visible Absorptance

OS:ComponentCost:LineItem,
  {8df5da9d-b9a2-41c9-9b0d-ee657934aafa}, ! Handle
  90.1-2004 Nonres 8A Attic Floor,        ! Name
  ,                                       ! Type
  Construction,                           ! Line Item Type
  90.1-2004 Nonres 8A Attic Floor,        ! Item Name
  ,                                       ! Object End Use Key
  ,                                       ! Quantity {dimensionless}
  35.009,                                 ! Material Cost {$}
  CostPerArea;                            ! Material Cost Units

OS:ComponentData,
  {7557fdb6-d5a1-4ebb-bfde-25b448f268bd}, ! Handle
  Component Data 1,                       ! Name
  {389899ca-61cc-4bd2-9831-ab2cdc00ac87}, ! UUID
  {1630879f-a607-4cd2-bae3-7fdcaff43846}, ! Version UUID
  1363981701,                             ! Creation Timestamp
  1363981701,                             ! Version Timestamp
  {f0c18d2f-39f2-4167-94fe-08a56a19ee47}, ! Name of Object 1
  {d885dab1-5ac4-41ec-9333-aca58dd1926d}, ! Name of Object 2
  {17e0b790-a2ec-4982-8a73-17085de46ed5}, ! Name of Object 3
  {1375da3f-498a-4a65-92d5-76c9c8d95b69}, ! Name of Object 4
  {8df5da9d-b9a2-41c9-9b0d-ee657934aafa}; ! Name of Object 5

