
OS:Version,
  {b1765cf7-0575-4938-acac-ed06bf459617}, ! Handle
  0.9.3;                                  ! Version Identifier

OS:Construction,
  {d39197a9-b139-45ac-9844-bf8fe57935f1}, ! Handle
  90.1 Windows Window Fixed 2525 Vnl-GrnMpr-Std-ClrPye, ! Name
  ,                                       ! Surface Rendering Name
  {5ac3e2bc-d3ed-47d3-8943-cc129c546769}; ! Layer 1

OS:WindowMaterial:Glazing,
  {5ac3e2bc-d3ed-47d3-8943-cc129c546769}, ! Handle
  Theoretical Glass [500],                ! Name
  SpectralAverage,                        ! Optical Data Type
  ,                                       ! Window Glass Spectral Data Set Name
  0.003,                                  ! Thickness {m}
  0.256651,                               ! Solar Transmittance at Normal Incidence
  0.693349,                               ! Front Side Solar Reflectance at Normal Incidence
  0.693349,                               ! Back Side Solar Reflectance at Normal Incidence
  0.320998,                               ! Visible Transmittance at Normal Incidence
  0.629002,                               ! Front Side Visible Reflectance at Normal Incidence
  0.629002,                               ! Back Side Visible Reflectance at Normal Incidence
  0,                                      ! Infrared Transmittance at Normal Incidence
  0.9,                                    ! Front Side Infrared Hemispherical Emissivity
  0.9,                                    ! Back Side Infrared Hemispherical Emissivity
  0.0103546;                              ! Conductivity {W/m-K}

OS:ComponentCost:LineItem,
  {c59cb433-7dff-45bf-9b1b-dad3ff3cfca9}, ! Handle
  90.1 Windows Window Fixed 2525 Vnl-GrnMpr-Std-ClrPye, ! Name
  ,                                       ! Type
  Construction,                           ! Line Item Type
  90.1 Windows Window Fixed 2525 Vnl-GrnMpr-Std-ClrPye, ! Item Name
  ,                                       ! Object End Use Key
  ,                                       ! Quantity {dimensionless}
  0,                                      ! Material Cost {$}
  CostPerArea;                            ! Material Cost Units

