
OS:Version,
  {a3ef91b6-39c6-48d1-8973-23cbdfa53b3b}, ! Handle
  0.9.3;                                  ! Version Identifier

OS:Construction,
  {a736b954-b4cb-44c3-bcd7-5feea2b4c0bc}, ! Handle
  90.1-1999 Nonres B6 Int Wall,           ! Name
  ,                                       ! Surface Rendering Name
  {96d884a6-1d58-49e2-9d86-0396f246ee02}, ! Layer 1
  {96d884a6-1d58-49e2-9d86-0396f246ee02}; ! Layer 2

OS:Material,
  {96d884a6-1d58-49e2-9d86-0396f246ee02}, ! Handle
  GP01 1/2 GYPSUM,                        ! Name
  Smooth,                                 ! Roughness
  0.01271,                                ! Thickness {m}
  0.16,                                   ! Conductivity {W/m-K}
  800,                                    ! Density {kg/m3}
  1090,                                   ! Specific Heat {J/kg-K}
  0.9,                                    ! Thermal Absorptance
  0.7,                                    ! Solar Absorptance
  0.5;                                    ! Visible Absorptance

OS:ComponentCost:LineItem,
  {5fb663f3-0831-47a9-84b1-34a602a02ff6}, ! Handle
  90.1-1999 Nonres B6 Int Wall,           ! Name
  ,                                       ! Type
  Construction,                           ! Line Item Type
  90.1-1999 Nonres B6 Int Wall,           ! Item Name
  ,                                       ! Object End Use Key
  ,                                       ! Quantity {dimensionless}
  0,                                      ! Material Cost {$}
  CostPerArea;                            ! Material Cost Units

OS:Material,
  {f9dc9145-eca7-4957-9733-39829983835a}, ! Handle
  GP01 1/2 GYPSUM 1,                      ! Name
  Smooth,                                 ! Roughness
  0.01271,                                ! Thickness {m}
  0.16,                                   ! Conductivity {W/m-K}
  800,                                    ! Density {kg/m3}
  1090,                                   ! Specific Heat {J/kg-K}
  0.9,                                    ! Thermal Absorptance
  0.7,                                    ! Solar Absorptance
  0.5;                                    ! Visible Absorptance

