
OS:Version,
  {a3db8e04-70e7-459f-bf2b-1e065ae4a700}, ! Handle
  0.9.3;                                  ! Version Identifier

OS:Construction,
  {b66de601-e582-4b1c-b61b-7f97a562081f}, ! Handle
  189.1-2009 Res 5B Window Nonmetal framing, ! Name
  ,                                       ! Surface Rendering Name
  {5fbe86ea-3d60-4835-a2f8-360c87054165}; ! Layer 1

OS:WindowMaterial:Glazing,
  {5fbe86ea-3d60-4835-a2f8-360c87054165}, ! Handle
  Theoretical Glass [213],                ! Name
  SpectralAverage,                        ! Optical Data Type
  ,                                       ! Window Glass Spectral Data Set Name
  0.003,                                  ! Thickness {m}
  0.378238,                               ! Solar Transmittance at Normal Incidence
  0.571762,                               ! Front Side Solar Reflectance at Normal Incidence
  0.571762,                               ! Back Side Solar Reflectance at Normal Incidence
  0.507883,                               ! Visible Transmittance at Normal Incidence
  0.442117,                               ! Front Side Visible Reflectance at Normal Incidence
  0.442117,                               ! Back Side Visible Reflectance at Normal Incidence
  0,                                      ! Infrared Transmittance at Normal Incidence
  0.9,                                    ! Front Side Infrared Hemispherical Emissivity
  0.9,                                    ! Back Side Infrared Hemispherical Emissivity
  0.00560984;                             ! Conductivity {W/m-K}

OS:ComponentCost:LineItem,
  {f691d1b2-3372-4fdd-9ef9-56640c651c5a}, ! Handle
  189.1-2009 Res 5B Window Nonmetal framing, ! Name
  ,                                       ! Type
  Construction,                           ! Line Item Type
  189.1-2009 Res 5B Window Nonmetal framing, ! Item Name
  ,                                       ! Object End Use Key
  ,                                       ! Quantity {dimensionless}
  512.02,                                 ! Material Cost {$}
  CostPerArea;                            ! Material Cost Units

OS:ComponentData,
  {9cc4d8af-bb19-4a50-97a1-97730c94aad7}, ! Handle
  Component Data 1,                       ! Name
  {2ad0d027-211d-4028-b3a4-a602fa8d253d}, ! UUID
  {b290592d-02b3-4d28-9576-0a7464d7df70}, ! Version UUID
  1363980978,                             ! Creation Timestamp
  1363980978,                             ! Version Timestamp
  {b66de601-e582-4b1c-b61b-7f97a562081f}, ! Name of Object 1
  {5fbe86ea-3d60-4835-a2f8-360c87054165}, ! Name of Object 2
  {f691d1b2-3372-4fdd-9ef9-56640c651c5a}; ! Name of Object 3

