
OS:Version,
  {91e14397-b5cd-4243-a549-f2cc7ced75d3}, !- Handle
  1.1.0;                                  !- Version Identifier

OS:Construction,
  {303227e3-8f2c-48d0-947d-198457b0bc72}, !- Handle
  Sgl Ref-C-M Tint 6mm,                   !- Name
  ,                                       !- Surface Rendering Name
  {4860e965-f2dc-4395-b3dd-f535b41efbf8}; !- Layer 1

OS:WindowMaterial:Glazing,
  {4860e965-f2dc-4395-b3dd-f535b41efbf8}, !- Handle
  REF C TINT MID 6MM,                     !- Name
  SpectralAverage,                        !- Optical Data Type
  ,                                       !- Window Glass Spectral Data Set Name
  0.006,                                  !- Thickness {m}
  0.1,                                    !- Solar Transmittance at Normal Incidence
  0.1,                                    !- Front Side Solar Reflectance at Normal Incidence
  0.42,                                   !- Back Side Solar Reflectance at Normal Incidence
  0.11,                                   !- Visible Transmittance at Normal Incidence
  0.1,                                    !- Front Side Visible Reflectance at Normal Incidence
  0.38,                                   !- Back Side Visible Reflectance at Normal Incidence
  0,                                      !- Infrared Transmittance at Normal Incidence
  0.84,                                   !- Front Side Infrared Hemispherical Emissivity
  0.51,                                   !- Back Side Infrared Hemispherical Emissivity
  0.9;                                    !- Conductivity {W/m-K}

