
OS:Version,
  {e4c8787f-d179-40b1-adf1-62095eb76fa5}, ! Handle
  0.9.3;                                  ! Version Identifier

OS:Construction,
  {a54380f7-5bd4-427c-ba60-892e30d7ea98}, ! Handle
  90.1-2007 Res 2A Ext Wall Steel-Framed, ! Name
  ,                                       ! Surface Rendering Name
  {40d789c7-4850-417f-b138-efe437f361f3}, ! Layer 1
  {9b8ff937-f7d8-4f64-8796-5ff96c5e331a}, ! Layer 2
  {1cc12551-86ba-4051-8dc0-59bc4940ed01}; ! Layer 3

OS:Material:NoMass,
  {40d789c7-4850-417f-b138-efe437f361f3}, ! Handle
  MAT-SHEATH,                             ! Name
  Rough,                                  ! Roughness
  0.36256,                                ! Thermal Resistance {m2-K/W}
  0.9,                                    ! Thermal Absorptance
  0.7,                                    ! Solar Absorptance
  0.7;                                    ! Visible Absorptance

OS:Material,
  {9b8ff937-f7d8-4f64-8796-5ff96c5e331a}, ! Handle
  Wall Insulation [10],                   ! Name
  MediumRough,                            ! Roughness
  0.0971136,                              ! Thickness {m}
  0.045,                                  ! Conductivity {W/m-K}
  265,                                    ! Density {kg/m3}
  836.8,                                  ! Specific Heat {J/kg-K}
  0.9,                                    ! Thermal Absorptance
  0.7,                                    ! Solar Absorptance
  0.7;                                    ! Visible Absorptance

OS:Material,
  {1cc12551-86ba-4051-8dc0-59bc4940ed01}, ! Handle
  1/2IN Gypsum,                           ! Name
  Smooth,                                 ! Roughness
  0.01271,                                ! Thickness {m}
  0.16,                                   ! Conductivity {W/m-K}
  784.9,                                  ! Density {kg/m3}
  830,                                    ! Specific Heat {J/kg-K}
  0.9,                                    ! Thermal Absorptance
  0.92,                                   ! Solar Absorptance
  0.92;                                   ! Visible Absorptance

OS:ComponentCost:LineItem,
  {bfc5b96b-69bc-413b-b903-e649c8250fd7}, ! Handle
  90.1-2007 Res 2A Ext Wall Steel-Framed, ! Name
  ,                                       ! Type
  Construction,                           ! Line Item Type
  90.1-2007 Res 2A Ext Wall Steel-Framed, ! Item Name
  ,                                       ! Object End Use Key
  ,                                       ! Quantity {dimensionless}
  94.657,                                 ! Material Cost {$}
  CostPerArea;                            ! Material Cost Units

