
OS:Version,
  {28c48e76-51dc-44a4-8302-6d63cda2280d}, ! Handle
  0.9.3;                                  ! Version Identifier

OS:Construction,
  {89312694-55ed-444b-ac4b-17b5097245f0}, ! Handle
  Title 24-2008 Nonres 3 Ext Slab Unheated - 4in Slab without Carpet, ! Name
  ,                                       ! Surface Rendering Name
  {a448c983-449a-44e4-af8b-26625f0c3610}; ! Layer 1

OS:Material,
  {a448c983-449a-44e4-af8b-26625f0c3610}, ! Handle
  MAT-CC05 4 HW CONCRETE,                 ! Name
  Rough,                                  ! Roughness
  0.1016,                                 ! Thickness {m}
  1.311,                                  ! Conductivity {W/m-K}
  2240,                                   ! Density {kg/m3}
  836.8,                                  ! Specific Heat {J/kg-K}
  0.9,                                    ! Thermal Absorptance
  0.7,                                    ! Solar Absorptance
  0.7;                                    ! Visible Absorptance

OS:ComponentCost:LineItem,
  {a16919ce-1d34-4c93-bcfb-7b0b0175b68c}, ! Handle
  Title 24-2008 Nonres 3 Ext Slab Unheated - 4in Slab without Carpet, ! Name
  ,                                       ! Type
  Construction,                           ! Line Item Type
  Title 24-2008 Nonres 3 Ext Slab Unheated - 4in Slab without Carpet, ! Item Name
  ,                                       ! Object End Use Key
  ,                                       ! Quantity {dimensionless}
  45.52,                                  ! Material Cost {$}
  CostPerArea;                            ! Material Cost Units

OS:ComponentData,
  {560b59ba-ab30-450c-8a6c-d4a5abab63d2}, ! Handle
  Component Data 1,                       ! Name
  {0df06be6-5487-4c1f-b606-9831c1c307c7}, ! UUID
  {28bc1b8e-51c3-4356-b863-f2a271072378}, ! Version UUID
  1363982004,                             ! Creation Timestamp
  1363982004,                             ! Version Timestamp
  {89312694-55ed-444b-ac4b-17b5097245f0}, ! Name of Object 1
  {a448c983-449a-44e4-af8b-26625f0c3610}, ! Name of Object 2
  {a16919ce-1d34-4c93-bcfb-7b0b0175b68c}; ! Name of Object 3

