
OS:Version,
  {c4a41d07-1920-4e12-aaaa-2c741061cf39}, ! Handle
  0.9.3;                                  ! Version Identifier

OS:Construction,
  {7b3a719b-b08e-40a5-b1fb-bb353ac881b3}, ! Handle
  Title 24-2008 Nonres 3 Ext Slab Unheated - 4in Slab without Carpet, ! Name
  ,                                       ! Surface Rendering Name
  {1108ce69-557b-4efb-b3e0-1218a201a39f}; ! Layer 1

OS:Material,
  {1108ce69-557b-4efb-b3e0-1218a201a39f}, ! Handle
  MAT-CC05 4 HW CONCRETE,                 ! Name
  Rough,                                  ! Roughness
  0.1016,                                 ! Thickness {m}
  1.311,                                  ! Conductivity {W/m-K}
  2240,                                   ! Density {kg/m3}
  836.8,                                  ! Specific Heat {J/kg-K}
  0.9,                                    ! Thermal Absorptance
  0.7,                                    ! Solar Absorptance
  0.7;                                    ! Visible Absorptance

OS:ComponentCost:LineItem,
  {82068a3c-b3fe-49dd-b630-7cce0fef583a}, ! Handle
  Title 24-2008 Nonres 3 Ext Slab Unheated - 4in Slab without Carpet, ! Name
  ,                                       ! Type
  Construction,                           ! Line Item Type
  Title 24-2008 Nonres 3 Ext Slab Unheated - 4in Slab without Carpet, ! Item Name
  ,                                       ! Object End Use Key
  ,                                       ! Quantity {dimensionless}
  45.52,                                  ! Material Cost {$}
  CostPerArea;                            ! Material Cost Units

