
OS:Version,
  {206e66cc-9a4f-4a75-aefd-4a75af5eced1}, ! Handle
  0.9.3;                                  ! Version Identifier

OS:Material,
  {b36a335d-b609-4b9e-8618-d1ad10bc5701}, ! Handle
  Metal Decking,                          ! Name
  MediumSmooth,                           ! Roughness
  0.001524,                               ! Thickness {m}
  45.006,                                 ! Conductivity {W/m-K}
  7680,                                   ! Density {kg/m3}
  418.4,                                  ! Specific Heat {J/kg-K}
  0.9,                                    ! Thermal Absorptance
  0.7,                                    ! Solar Absorptance
  0.3;                                    ! Visible Absorptance

OS:Material,
  {9d7f1dbf-7d60-4d53-a2b0-66e704e77c0b}, ! Handle
  Roof Membrane,                          ! Name
  VeryRough,                              ! Roughness
  0.0095,                                 ! Thickness {m}
  0.16,                                   ! Conductivity {W/m-K}
  1121.29,                                ! Density {kg/m3}
  1460,                                   ! Specific Heat {J/kg-K}
  0.9,                                    ! Thermal Absorptance
  0.7,                                    ! Solar Absorptance
  0.7;                                    ! Visible Absorptance

OS:ComponentCost:LineItem,
  {c57c4838-6a86-4e33-9f93-e81ed6f72f97}, ! Handle
  90.1-2007 Res 3A Roof IEAD,             ! Name
  ,                                       ! Type
  Construction,                           ! Line Item Type
  90.1-2007 Res 3A Roof IEAD,             ! Item Name
  ,                                       ! Object End Use Key
  ,                                       ! Quantity {dimensionless}
  52.87,                                  ! Material Cost {$}
  CostPerArea;                            ! Material Cost Units

OS:Construction,
  {73703998-9693-49e0-ad9c-64d1d00d7b07}, ! Handle
  90.1-2007 Res 3A Roof IEAD,             ! Name
  ,                                       ! Surface Rendering Name
  {9d7f1dbf-7d60-4d53-a2b0-66e704e77c0b}, ! Layer 1
  {5211e045-4923-44af-9e97-e965deccdafd}, ! Layer 2
  {b36a335d-b609-4b9e-8618-d1ad10bc5701}; ! Layer 3

OS:Material,
  {5211e045-4923-44af-9e97-e965deccdafd}, ! Handle
  Roof Insulation [14],                   ! Name
  MediumRough,                            ! Roughness
  0.167335,                               ! Thickness {m}
  0.049,                                  ! Conductivity {W/m-K}
  265,                                    ! Density {kg/m3}
  836.8,                                  ! Specific Heat {J/kg-K}
  0.9,                                    ! Thermal Absorptance
  0.7,                                    ! Solar Absorptance
  0.7;                                    ! Visible Absorptance

