
OS:Version,
  {fbf3b061-968c-4c4b-b4c3-4a5a1bd3b033}, ! Handle
  0.9.3;                                  ! Version Identifier

OS:Construction,
  {42ba51db-5af8-4122-8421-0fa2dca77631}, ! Handle
  90.1-1999 Res B24 Roof IEAD,            ! Name
  ,                                       ! Surface Rendering Name
  {7f973f2e-b849-4919-b93b-b35b8ed1e820}, ! Layer 1
  {2bf5bba9-8f3b-4796-a0e4-06575ac6836d}, ! Layer 2
  {63e63393-8747-4ba8-888e-ade1f98d4dcd}; ! Layer 3

OS:Material,
  {7f973f2e-b849-4919-b93b-b35b8ed1e820}, ! Handle
  Roof Membrane,                          ! Name
  VeryRough,                              ! Roughness
  0.0095,                                 ! Thickness {m}
  0.16,                                   ! Conductivity {W/m-K}
  1121.29,                                ! Density {kg/m3}
  1460,                                   ! Specific Heat {J/kg-K}
  0.9,                                    ! Thermal Absorptance
  0.7,                                    ! Solar Absorptance
  0.7;                                    ! Visible Absorptance

OS:Material,
  {2bf5bba9-8f3b-4796-a0e4-06575ac6836d}, ! Handle
  Roof Insulation [7],                    ! Name
  MediumRough,                            ! Roughness
  0.167563,                               ! Thickness {m}
  0.049,                                  ! Conductivity {W/m-K}
  265,                                    ! Density {kg/m3}
  836.8,                                  ! Specific Heat {J/kg-K}
  0.9,                                    ! Thermal Absorptance
  0.7,                                    ! Solar Absorptance
  0.7;                                    ! Visible Absorptance

OS:Material,
  {63e63393-8747-4ba8-888e-ade1f98d4dcd}, ! Handle
  Metal Decking,                          ! Name
  MediumSmooth,                           ! Roughness
  0.001524,                               ! Thickness {m}
  45.006,                                 ! Conductivity {W/m-K}
  7680,                                   ! Density {kg/m3}
  418.4,                                  ! Specific Heat {J/kg-K}
  0.9,                                    ! Thermal Absorptance
  0.7,                                    ! Solar Absorptance
  0.3;                                    ! Visible Absorptance

OS:ComponentCost:LineItem,
  {4583f21e-319f-4136-ab9a-2ccda4a67eff}, ! Handle
  90.1-1999 Res B24 Roof IEAD,            ! Name
  ,                                       ! Type
  Construction,                           ! Line Item Type
  90.1-1999 Res B24 Roof IEAD,            ! Item Name
  ,                                       ! Object End Use Key
  ,                                       ! Quantity {dimensionless}
  52.896,                                 ! Material Cost {$}
  CostPerArea;                            ! Material Cost Units

