
OS:Version,
  {5c1ef58a-ccd4-4608-b64c-680aaf80c44f}, !- Handle
  1.1.0;                                  !- Version Identifier

OS:Construction,
  {b57cdc41-097f-44ad-874f-3ba82ff636cd}, !- Handle
  Sgl Green 6mm,                          !- Name
  ,                                       !- Surface Rendering Name
  {09a77aa7-af9e-4968-b57e-445bac736f47}; !- Layer 1

OS:WindowMaterial:Glazing,
  {09a77aa7-af9e-4968-b57e-445bac736f47}, !- Handle
  GREEN 6MM,                              !- Name
  SpectralAverage,                        !- Optical Data Type
  ,                                       !- Window Glass Spectral Data Set Name
  0.006,                                  !- Thickness {m}
  0.487,                                  !- Solar Transmittance at Normal Incidence
  0.056,                                  !- Front Side Solar Reflectance at Normal Incidence
  0.056,                                  !- Back Side Solar Reflectance at Normal Incidence
  0.749,                                  !- Visible Transmittance at Normal Incidence
  0.07,                                   !- Front Side Visible Reflectance at Normal Incidence
  0.07,                                   !- Back Side Visible Reflectance at Normal Incidence
  0,                                      !- Infrared Transmittance at Normal Incidence
  0.84,                                   !- Front Side Infrared Hemispherical Emissivity
  0.84,                                   !- Back Side Infrared Hemispherical Emissivity
  0.9;                                    !- Conductivity {W/m-K}

OS:ComponentData,
  {8320dfe5-af09-41a6-bc45-8e7620a2b562}, !- Handle
  Component Data 1,                       !- Name
  {41ab4ea6-3f02-4a5e-b150-760f9ad1ae61}, !- UUID
  {75b72218-ccc2-472d-aed5-bea739886ffe}, !- Version UUID
  1384380195,                             !- Creation Timestamp
  1384380195,                             !- Version Timestamp
  {b57cdc41-097f-44ad-874f-3ba82ff636cd}, !- Name of Object 1
  {09a77aa7-af9e-4968-b57e-445bac736f47}; !- Name of Object 2

