
OS:Version,
  {d6a3e0b7-5b26-44c0-9dd0-4ac526dc69e9}, !- Handle
  1.1.0;                                  !- Version Identifier

OS:Construction,
  {31e4934f-2289-4bbc-8e12-ee191c0de1b2}, !- Handle
  Sgl Green 6mm,                          !- Name
  ,                                       !- Surface Rendering Name
  {899cca12-a820-4e34-b5a9-8dfd3017d442}; !- Layer 1

OS:WindowMaterial:Glazing,
  {899cca12-a820-4e34-b5a9-8dfd3017d442}, !- Handle
  GREEN 6MM,                              !- Name
  SpectralAverage,                        !- Optical Data Type
  ,                                       !- Window Glass Spectral Data Set Name
  0.006,                                  !- Thickness {m}
  0.487,                                  !- Solar Transmittance at Normal Incidence
  0.056,                                  !- Front Side Solar Reflectance at Normal Incidence
  0.056,                                  !- Back Side Solar Reflectance at Normal Incidence
  0.749,                                  !- Visible Transmittance at Normal Incidence
  0.07,                                   !- Front Side Visible Reflectance at Normal Incidence
  0.07,                                   !- Back Side Visible Reflectance at Normal Incidence
  0,                                      !- Infrared Transmittance at Normal Incidence
  0.84,                                   !- Front Side Infrared Hemispherical Emissivity
  0.84,                                   !- Back Side Infrared Hemispherical Emissivity
  0.9;                                    !- Conductivity {W/m-K}

