
OS:Version,
  {8a847515-a054-4e79-8212-7bc68d11654d}, ! Handle
  0.9.3;                                  ! Version Identifier

OS:Construction,
  {a0108515-1d10-4aef-90c2-c6ec7ab842e9}, ! Handle
  90.1-1999 Nonres B2 Int Wall,           ! Name
  ,                                       ! Surface Rendering Name
  {f59d9108-9f89-4d40-8d3e-e840db5443b3}, ! Layer 1
  {f59d9108-9f89-4d40-8d3e-e840db5443b3}; ! Layer 2

OS:Material,
  {f59d9108-9f89-4d40-8d3e-e840db5443b3}, ! Handle
  GP01 1/2 GYPSUM,                        ! Name
  Smooth,                                 ! Roughness
  0.01271,                                ! Thickness {m}
  0.16,                                   ! Conductivity {W/m-K}
  800,                                    ! Density {kg/m3}
  1090,                                   ! Specific Heat {J/kg-K}
  0.9,                                    ! Thermal Absorptance
  0.7,                                    ! Solar Absorptance
  0.5;                                    ! Visible Absorptance

OS:ComponentCost:LineItem,
  {cf37a29c-7b37-4216-a006-f70d23154681}, ! Handle
  90.1-1999 Nonres B2 Int Wall,           ! Name
  ,                                       ! Type
  Construction,                           ! Line Item Type
  90.1-1999 Nonres B2 Int Wall,           ! Item Name
  ,                                       ! Object End Use Key
  ,                                       ! Quantity {dimensionless}
  0,                                      ! Material Cost {$}
  CostPerArea;                            ! Material Cost Units

OS:Material,
  {94091390-3b87-4c56-8f45-09b7f32b5c0e}, ! Handle
  GP01 1/2 GYPSUM 1,                      ! Name
  Smooth,                                 ! Roughness
  0.01271,                                ! Thickness {m}
  0.16,                                   ! Conductivity {W/m-K}
  800,                                    ! Density {kg/m3}
  1090,                                   ! Specific Heat {J/kg-K}
  0.9,                                    ! Thermal Absorptance
  0.7,                                    ! Solar Absorptance
  0.5;                                    ! Visible Absorptance

