
OS:Version,
  {7d305cc8-bfc7-45ca-8bd6-784db6fef4f8}, ! Handle
  0.9.3;                                  ! Version Identifier

OS:Construction,
  {79aceb1b-0034-486d-9f9a-643b27fba395}, ! Handle
  90.1-2004 Nonres 2A Ext Slab Unheated - 8in Slab without Carpet, ! Name
  ,                                       ! Surface Rendering Name
  {a01c1526-1bc1-4455-8ce1-849dee957117}; ! Layer 1

OS:Material,
  {a01c1526-1bc1-4455-8ce1-849dee957117}, ! Handle
  MAT-CC05 8 HW CONCRETE,                 ! Name
  Rough,                                  ! Roughness
  0.20321,                                ! Thickness {m}
  1.311,                                  ! Conductivity {W/m-K}
  2240,                                   ! Density {kg/m3}
  836.8,                                  ! Specific Heat {J/kg-K}
  0.9,                                    ! Thermal Absorptance
  0.7,                                    ! Solar Absorptance
  0.7;                                    ! Visible Absorptance

OS:ComponentCost:LineItem,
  {6d4ecb9e-4b6d-48a3-ba9c-7241c68a854e}, ! Handle
  90.1-2004 Nonres 2A Ext Slab Unheated - 8in Slab without Carpet, ! Name
  ,                                       ! Type
  Construction,                           ! Line Item Type
  90.1-2004 Nonres 2A Ext Slab Unheated - 8in Slab without Carpet, ! Item Name
  ,                                       ! Object End Use Key
  ,                                       ! Quantity {dimensionless}
  45.52,                                  ! Material Cost {$}
  CostPerArea;                            ! Material Cost Units

