
OS:Version,
  {d2a699aa-14d1-42d1-96f0-44ed11ac335c}, ! Handle
  0.9.3;                                  ! Version Identifier

OS:Construction,
  {8eac8996-31d1-49fd-a8ea-66efd2e056ea}, ! Handle
  AEDG SHC Nonres 1A Skylight without Curb, ! Name
  ,                                       ! Surface Rendering Name
  {7eb96853-863f-47bd-9a11-e0a7c3089389}; ! Layer 1

OS:WindowMaterial:Glazing,
  {7eb96853-863f-47bd-9a11-e0a7c3089389}, ! Handle
  Theoretical Glass [238],                ! Name
  SpectralAverage,                        ! Optical Data Type
  ,                                       ! Window Glass Spectral Data Set Name
  0.003,                                  ! Thickness {m}
  0.334238,                               ! Solar Transmittance at Normal Incidence
  0.615762,                               ! Front Side Solar Reflectance at Normal Incidence
  0.615762,                               ! Back Side Solar Reflectance at Normal Incidence
  0.3507,                                 ! Visible Transmittance at Normal Incidence
  0.5993,                                 ! Front Side Visible Reflectance at Normal Incidence
  0.5993,                                 ! Back Side Visible Reflectance at Normal Incidence
  0,                                      ! Infrared Transmittance at Normal Incidence
  0.9,                                    ! Front Side Infrared Hemispherical Emissivity
  0.9,                                    ! Back Side Infrared Hemispherical Emissivity
  0.0414918;                              ! Conductivity {W/m-K}

OS:ComponentCost:LineItem,
  {4570de18-253f-43b0-954f-b7ad1225a8c5}, ! Handle
  AEDG SHC Nonres 1A Skylight without Curb, ! Name
  ,                                       ! Type
  Construction,                           ! Line Item Type
  AEDG SHC Nonres 1A Skylight without Curb, ! Item Name
  ,                                       ! Object End Use Key
  ,                                       ! Quantity {dimensionless}
  0,                                      ! Material Cost {$}
  CostPerArea;                            ! Material Cost Units

