
OS:Version,
  {31d1d626-0434-4fe0-be0f-4d2f49082a60}, ! Handle
  0.9.3;                                  ! Version Identifier

OS:Construction,
  {69599ba8-993f-4f17-b50d-4684a77a7b39}, ! Handle
  90.1-2007 Res 7A Window Metal framing curtainwall-storefront, ! Name
  ,                                       ! Surface Rendering Name
  {9c9e1e0d-578a-4a78-a2ba-d04a8c6dcf4a}; ! Layer 1

OS:WindowMaterial:Glazing,
  {9c9e1e0d-578a-4a78-a2ba-d04a8c6dcf4a}, ! Handle
  Theoretical Glass [189],                ! Name
  SpectralAverage,                        ! Optical Data Type
  ,                                       ! Window Glass Spectral Data Set Name
  0.003,                                  ! Thickness {m}
  0.444641,                               ! Solar Transmittance at Normal Incidence
  0.505359,                               ! Front Side Solar Reflectance at Normal Incidence
  0.505359,                               ! Back Side Solar Reflectance at Normal Incidence
  0.450308,                               ! Visible Transmittance at Normal Incidence
  0.499692,                               ! Front Side Visible Reflectance at Normal Incidence
  0.499692,                               ! Back Side Visible Reflectance at Normal Incidence
  0,                                      ! Infrared Transmittance at Normal Incidence
  0.9,                                    ! Front Side Infrared Hemispherical Emissivity
  0.9,                                    ! Back Side Infrared Hemispherical Emissivity
  0.0107657;                              ! Conductivity {W/m-K}

OS:ComponentCost:LineItem,
  {8960c586-40cb-4451-8add-e01ad26fa95c}, ! Handle
  90.1-2007 Res 7A Window Metal framing curtainwall-storefront, ! Name
  ,                                       ! Type
  Construction,                           ! Line Item Type
  90.1-2007 Res 7A Window Metal framing curtainwall-storefront, ! Item Name
  ,                                       ! Object End Use Key
  ,                                       ! Quantity {dimensionless}
  508.362,                                ! Material Cost {$}
  CostPerArea;                            ! Material Cost Units

OS:ComponentData,
  {43cbb3d2-e5a1-4929-9cbe-9dd2be6e679f}, ! Handle
  Component Data 1,                       ! Name
  {82cc74c5-6289-4f5c-aa67-6c9d899f0f86}, ! UUID
  {a65c1b87-42e7-45ce-ac49-fe070409a131}, ! Version UUID
  1363981874,                             ! Creation Timestamp
  1363981874,                             ! Version Timestamp
  {69599ba8-993f-4f17-b50d-4684a77a7b39}, ! Name of Object 1
  {9c9e1e0d-578a-4a78-a2ba-d04a8c6dcf4a}, ! Name of Object 2
  {8960c586-40cb-4451-8add-e01ad26fa95c}; ! Name of Object 3

