
OS:Version,
  {170f9ac6-0ed7-4dea-9200-ce4f35ab8b3c}, ! Handle
  0.9.3;                                  ! Version Identifier

OS:Construction,
  {3d10c650-186b-46d6-8ed5-b20b549425c2}, ! Handle
  90.1-2007 Res 7A Window Metal framing curtainwall-storefront, ! Name
  ,                                       ! Surface Rendering Name
  {3fe97985-1456-47e8-a1ba-02c0e80d6984}; ! Layer 1

OS:WindowMaterial:Glazing,
  {3fe97985-1456-47e8-a1ba-02c0e80d6984}, ! Handle
  Theoretical Glass [189],                ! Name
  SpectralAverage,                        ! Optical Data Type
  ,                                       ! Window Glass Spectral Data Set Name
  0.003,                                  ! Thickness {m}
  0.444641,                               ! Solar Transmittance at Normal Incidence
  0.505359,                               ! Front Side Solar Reflectance at Normal Incidence
  0.505359,                               ! Back Side Solar Reflectance at Normal Incidence
  0.450308,                               ! Visible Transmittance at Normal Incidence
  0.499692,                               ! Front Side Visible Reflectance at Normal Incidence
  0.499692,                               ! Back Side Visible Reflectance at Normal Incidence
  0,                                      ! Infrared Transmittance at Normal Incidence
  0.9,                                    ! Front Side Infrared Hemispherical Emissivity
  0.9,                                    ! Back Side Infrared Hemispherical Emissivity
  0.0107657;                              ! Conductivity {W/m-K}

OS:ComponentCost:LineItem,
  {e55449bd-a70e-4369-925e-a29a7c6e7e35}, ! Handle
  90.1-2007 Res 7A Window Metal framing curtainwall-storefront, ! Name
  ,                                       ! Type
  Construction,                           ! Line Item Type
  90.1-2007 Res 7A Window Metal framing curtainwall-storefront, ! Item Name
  ,                                       ! Object End Use Key
  ,                                       ! Quantity {dimensionless}
  508.362,                                ! Material Cost {$}
  CostPerArea;                            ! Material Cost Units

