
OS:Version,
  {ca579199-06ca-467c-9d24-dd9847cc59c5}, !- Handle
  1.1.0;                                  !- Version Identifier

OS:Construction,
  {1e7e2212-01db-4981-b529-daff3088bd73}, !- Handle
  Sgl Ref-C-L Clr 6mm,                    !- Name
  ,                                       !- Surface Rendering Name
  {8e647760-7213-4642-91a1-0e466e024b81}; !- Layer 1

OS:WindowMaterial:Glazing,
  {8e647760-7213-4642-91a1-0e466e024b81}, !- Handle
  REF C CLEAR LO 6MM,                     !- Name
  SpectralAverage,                        !- Optical Data Type
  ,                                       !- Window Glass Spectral Data Set Name
  0.006,                                  !- Thickness {m}
  0.11,                                   !- Solar Transmittance at Normal Incidence
  0.25,                                   !- Front Side Solar Reflectance at Normal Incidence
  0.49,                                   !- Back Side Solar Reflectance at Normal Incidence
  0.13,                                   !- Visible Transmittance at Normal Incidence
  0.28,                                   !- Front Side Visible Reflectance at Normal Incidence
  0.42,                                   !- Back Side Visible Reflectance at Normal Incidence
  0,                                      !- Infrared Transmittance at Normal Incidence
  0.84,                                   !- Front Side Infrared Hemispherical Emissivity
  0.43,                                   !- Back Side Infrared Hemispherical Emissivity
  0.9;                                    !- Conductivity {W/m-K}

