
OS:Version,
  {82fc47c6-67f8-4b65-8a1f-3ae86aaf6c59}, ! Handle
  0.9.3;                                  ! Version Identifier

OS:Material,
  {d63fa9df-48a8-45f0-9d67-5c9c53c14557}, ! Handle
  1/2IN Gypsum,                           ! Name
  Smooth,                                 ! Roughness
  0.01271,                                ! Thickness {m}
  0.16,                                   ! Conductivity {W/m-K}
  784.9,                                  ! Density {kg/m3}
  830,                                    ! Specific Heat {J/kg-K}
  0.9,                                    ! Thermal Absorptance
  0.92,                                   ! Solar Absorptance
  0.92;                                   ! Visible Absorptance

OS:Material,
  {55e868cc-26bd-43df-9465-900226e949c7}, ! Handle
  Metal Siding,                           ! Name
  Smooth,                                 ! Roughness
  0.0015,                                 ! Thickness {m}
  44.96,                                  ! Conductivity {W/m-K}
  7688.86,                                ! Density {kg/m3}
  410,                                    ! Specific Heat {J/kg-K}
  0.9,                                    ! Thermal Absorptance
  0.2,                                    ! Solar Absorptance
  0.2;                                    ! Visible Absorptance

OS:Construction,
  {e26b6bd4-786a-4bd6-9554-34f53eb03c12}, ! Handle
  90.1-2007 Nonres 3A Ext Wall Metal Building, ! Name
  ,                                       ! Surface Rendering Name
  {55e868cc-26bd-43df-9465-900226e949c7}, ! Layer 1
  {7dc763db-31b9-4703-bfcd-c9387f4095dd}, ! Layer 2
  {d63fa9df-48a8-45f0-9d67-5c9c53c14557}; ! Layer 3

OS:Material,
  {7dc763db-31b9-4703-bfcd-c9387f4095dd}, ! Handle
  Wall Insulation,                        ! Name
  MediumRough,                            ! Roughness
  0.0598725,                              ! Thickness {m}
  0.045,                                  ! Conductivity {W/m-K}
  265,                                    ! Density {kg/m3}
  836.8,                                  ! Specific Heat {J/kg-K}
  0.9,                                    ! Thermal Absorptance
  0.7,                                    ! Solar Absorptance
  0.7;                                    ! Visible Absorptance

OS:ComponentCost:LineItem,
  {ad99c00a-ef27-4a0b-8dfc-6bd8888e8d9b}, ! Handle
  90.1-2007 Nonres 3A Ext Wall Metal Building, ! Name
  ,                                       ! Type
  Construction,                           ! Line Item Type
  90.1-2007 Nonres 3A Ext Wall Metal Building, ! Item Name
  ,                                       ! Object End Use Key
  ,                                       ! Quantity {dimensionless}
  98.78,                                  ! Material Cost {$}
  CostPerArea;                            ! Material Cost Units

