
OS:Version,
  {025f4bf7-fa36-4e43-bbea-0f73aba75aa6}, !- Handle
  1.0.6;                                  !- Version Identifier

OS:WindowMaterial:Glazing,
  {dba2bf50-9933-400d-a3ac-8162b8117d4e}, !- Handle
  189.1-2011 NONRES 6B METAL FRAMING CURTAINWALL-STOREFRONT THEORETICAL GLAZING, !- Name
  SpectralAverage,                        !- Optical Data Type
  ,                                       !- Window Glass Spectral Data Set Name
  0.03746,                                !- Thickness {m}
  0.31435,                                !- Solar Transmittance at Normal Incidence
  0.48256,                                !- Front Side Solar Reflectance at Normal Incidence
  0.48256,                                !- Back Side Solar Reflectance at Normal Incidence
  0.31435,                                !- Visible Transmittance at Normal Incidence
  0.48256,                                !- Front Side Visible Reflectance at Normal Incidence
  0.48256,                                !- Back Side Visible Reflectance at Normal Incidence
  0,                                      !- Infrared Transmittance at Normal Incidence
  0.84,                                   !- Front Side Infrared Hemispherical Emissivity
  0.84,                                   !- Back Side Infrared Hemispherical Emissivity
  0.11374,                                !- Conductivity {W/m-K}
  1,                                      !- Dirt Correction Factor for Solar and Visible Transmittance
  No;                                     !- Solar Diffusing

OS:Construction,
  {35b07d97-4855-4de2-9ed8-47a53295f325}, !- Handle
  189.1-2011 NONRES 6B METAL FRAMING CURTAINWALL-STOREFRONT, !- Name
  ,                                       !- Surface Rendering Name
  {dba2bf50-9933-400d-a3ac-8162b8117d4e}; !- Layer 1

