
OS:Version,
  {4a981e5b-a330-4752-822a-3e339b64b8f2}, ! Handle
  0.9.3;                                  ! Version Identifier

OS:Construction,
  {6139a63d-615d-4dc9-9780-1f691c256b28}, ! Handle
  90.1-2007 Res 1A Roof IEAD,             ! Name
  ,                                       ! Surface Rendering Name
  {b46e2dc5-67f4-429d-977c-8c53684948e9}, ! Layer 1
  {f80d3360-fb53-4024-b0a1-77fab0343fa4}, ! Layer 2
  {37216339-e88e-4bd2-81b3-a9acf922e362}; ! Layer 3

OS:Material,
  {b46e2dc5-67f4-429d-977c-8c53684948e9}, ! Handle
  Roof Membrane,                          ! Name
  VeryRough,                              ! Roughness
  0.0095,                                 ! Thickness {m}
  0.16,                                   ! Conductivity {W/m-K}
  1121.29,                                ! Density {kg/m3}
  1460,                                   ! Specific Heat {J/kg-K}
  0.9,                                    ! Thermal Absorptance
  0.7,                                    ! Solar Absorptance
  0.7;                                    ! Visible Absorptance

OS:Material,
  {f80d3360-fb53-4024-b0a1-77fab0343fa4}, ! Handle
  Roof Insulation [14],                   ! Name
  MediumRough,                            ! Roughness
  0.167335,                               ! Thickness {m}
  0.049,                                  ! Conductivity {W/m-K}
  265,                                    ! Density {kg/m3}
  836.8,                                  ! Specific Heat {J/kg-K}
  0.9,                                    ! Thermal Absorptance
  0.7,                                    ! Solar Absorptance
  0.7;                                    ! Visible Absorptance

OS:Material,
  {37216339-e88e-4bd2-81b3-a9acf922e362}, ! Handle
  Metal Decking,                          ! Name
  MediumSmooth,                           ! Roughness
  0.001524,                               ! Thickness {m}
  45.006,                                 ! Conductivity {W/m-K}
  7680,                                   ! Density {kg/m3}
  418.4,                                  ! Specific Heat {J/kg-K}
  0.9,                                    ! Thermal Absorptance
  0.7,                                    ! Solar Absorptance
  0.3;                                    ! Visible Absorptance

OS:ComponentCost:LineItem,
  {4990abbd-b2ba-4be3-bc2a-27f41d515234}, ! Handle
  90.1-2007 Res 1A Roof IEAD,             ! Name
  ,                                       ! Type
  Construction,                           ! Line Item Type
  90.1-2007 Res 1A Roof IEAD,             ! Item Name
  ,                                       ! Object End Use Key
  ,                                       ! Quantity {dimensionless}
  52.87,                                  ! Material Cost {$}
  CostPerArea;                            ! Material Cost Units

