
OS:Version,
  {69929317-e09e-431f-ad47-77045d482652}, ! Handle
  0.9.3;                                  ! Version Identifier

OS:Material,
  {f095b69e-d456-457f-a158-1edc411a0944}, ! Handle
  Metal Siding,                           ! Name
  Smooth,                                 ! Roughness
  0.0015,                                 ! Thickness {m}
  44.96,                                  ! Conductivity {W/m-K}
  7688.86,                                ! Density {kg/m3}
  410,                                    ! Specific Heat {J/kg-K}
  0.9,                                    ! Thermal Absorptance
  0.2,                                    ! Solar Absorptance
  0.2;                                    ! Visible Absorptance

OS:Material,
  {cb27e960-8a1e-4212-9a37-68f88647ca38}, ! Handle
  Wall Insulation [20],                   ! Name
  MediumRough,                            ! Roughness
  0.128688,                               ! Thickness {m}
  0.045,                                  ! Conductivity {W/m-K}
  265,                                    ! Density {kg/m3}
  836.8,                                  ! Specific Heat {J/kg-K}
  0.9,                                    ! Thermal Absorptance
  0.7,                                    ! Solar Absorptance
  0.7;                                    ! Visible Absorptance

OS:Material,
  {7c57d1de-380c-4186-ad3a-32960cf0a88a}, ! Handle
  1/2IN Gypsum,                           ! Name
  Smooth,                                 ! Roughness
  0.01271,                                ! Thickness {m}
  0.16,                                   ! Conductivity {W/m-K}
  784.9,                                  ! Density {kg/m3}
  830,                                    ! Specific Heat {J/kg-K}
  0.9,                                    ! Thermal Absorptance
  0.92,                                   ! Solar Absorptance
  0.92;                                   ! Visible Absorptance

OS:ComponentCost:LineItem,
  {eb0ee0d2-fa56-4813-a91e-ecd63edd5d29}, ! Handle
  90.1-2004 Res 6B Ext Wall Metal Building, ! Name
  ,                                       ! Type
  Construction,                           ! Line Item Type
  90.1-2004 Res 6B Ext Wall Metal Building, ! Item Name
  ,                                       ! Object End Use Key
  ,                                       ! Quantity {dimensionless}
  107.702,                                ! Material Cost {$}
  CostPerArea;                            ! Material Cost Units

OS:Construction,
  {9cc23921-a689-4a34-b6eb-5f51b8cb27f9}, ! Handle
  90.1-2004 Res 6B Ext Wall Metal Building, ! Name
  ,                                       ! Surface Rendering Name
  {f095b69e-d456-457f-a158-1edc411a0944}, ! Layer 1
  {cb27e960-8a1e-4212-9a37-68f88647ca38}, ! Layer 2
  {7c57d1de-380c-4186-ad3a-32960cf0a88a}; ! Layer 3

