
OS:Version,
  {ab69e642-d543-410d-b7a3-3817ffd970ed}, ! Handle
  0.9.3;                                  ! Version Identifier

OS:Construction,
  {019cdb65-785c-4758-915b-e63f8ecec91f}, ! Handle
  90.1-2001 Res B19 Ext Wall Wood-Framed and Other, ! Name
  ,                                       ! Surface Rendering Name
  {1c5c641e-a7de-4087-acb2-275d2084ad4c}, ! Layer 1
  {e8c9423a-9ddc-4c82-a62c-de4d01992e4f}, ! Layer 2
  {1b516aae-d285-4547-a1fc-525126c1288d}; ! Layer 3

OS:Material,
  {1c5c641e-a7de-4087-acb2-275d2084ad4c}, ! Handle
  Wood Siding,                            ! Name
  MediumSmooth,                           ! Roughness
  0.01,                                   ! Thickness {m}
  0.11,                                   ! Conductivity {W/m-K}
  544.62,                                 ! Density {kg/m3}
  1210,                                   ! Specific Heat {J/kg-K}
  0.9,                                    ! Thermal Absorptance
  0.78,                                   ! Solar Absorptance
  0.78;                                   ! Visible Absorptance

OS:Material,
  {e8c9423a-9ddc-4c82-a62c-de4d01992e4f}, ! Handle
  Wall Insulation [11],                   ! Name
  MediumRough,                            ! Roughness
  0.109279,                               ! Thickness {m}
  0.045,                                  ! Conductivity {W/m-K}
  265,                                    ! Density {kg/m3}
  836.8,                                  ! Specific Heat {J/kg-K}
  0.9,                                    ! Thermal Absorptance
  0.7,                                    ! Solar Absorptance
  0.7;                                    ! Visible Absorptance

OS:Material,
  {1b516aae-d285-4547-a1fc-525126c1288d}, ! Handle
  1/2IN Gypsum,                           ! Name
  Smooth,                                 ! Roughness
  0.01271,                                ! Thickness {m}
  0.16,                                   ! Conductivity {W/m-K}
  784.9,                                  ! Density {kg/m3}
  830,                                    ! Specific Heat {J/kg-K}
  0.9,                                    ! Thermal Absorptance
  0.92,                                   ! Solar Absorptance
  0.92;                                   ! Visible Absorptance

OS:ComponentCost:LineItem,
  {940916e9-c2f3-4e46-891f-40c4d7f863eb}, ! Handle
  90.1-2001 Res B19 Ext Wall Wood-Framed and Other, ! Name
  ,                                       ! Type
  Construction,                           ! Line Item Type
  90.1-2001 Res B19 Ext Wall Wood-Framed and Other, ! Item Name
  ,                                       ! Object End Use Key
  ,                                       ! Quantity {dimensionless}
  77.608,                                 ! Material Cost {$}
  CostPerArea;                            ! Material Cost Units

OS:ComponentData,
  {48b71dc0-60fb-4f77-a1c2-4bdf6c4f67cc}, ! Handle
  Component Data 1,                       ! Name
  {e108dbc8-47e8-4c59-9523-20daeb8ba04f}, ! UUID
  {bc1cbdeb-9693-4b15-9e54-d5f35228a69f}, ! Version UUID
  1363981566,                             ! Creation Timestamp
  1363981566,                             ! Version Timestamp
  {019cdb65-785c-4758-915b-e63f8ecec91f}, ! Name of Object 1
  {1c5c641e-a7de-4087-acb2-275d2084ad4c}, ! Name of Object 2
  {e8c9423a-9ddc-4c82-a62c-de4d01992e4f}, ! Name of Object 3
  {1b516aae-d285-4547-a1fc-525126c1288d}, ! Name of Object 4
  {940916e9-c2f3-4e46-891f-40c4d7f863eb}; ! Name of Object 5

