
OS:Version,
  {896678d9-749d-4a0e-a11f-3a4a4f5c2d64}, ! Handle
  0.9.3;                                  ! Version Identifier

OS:ComponentCost:LineItem,
  {3fd9c9bb-e3cf-4c31-bb31-086bf7bab700}, ! Handle
  90.1-1999 Nonres B20 Roof Metal Building, ! Name
  ,                                       ! Type
  Construction,                           ! Line Item Type
  90.1-1999 Nonres B20 Roof Metal Building, ! Item Name
  ,                                       ! Object End Use Key
  ,                                       ! Quantity {dimensionless}
  38.206,                                 ! Material Cost {$}
  CostPerArea;                            ! Material Cost Units

OS:Material,
  {3cb88226-7f44-4bdd-83ff-07bcbf665142}, ! Handle
  Roof Insulation [1],                    ! Name
  MediumRough,                            ! Roughness
  0.123533,                               ! Thickness {m}
  0.049,                                  ! Conductivity {W/m-K}
  265,                                    ! Density {kg/m3}
  836.8,                                  ! Specific Heat {J/kg-K}
  0.9,                                    ! Thermal Absorptance
  0.7,                                    ! Solar Absorptance
  0.7;                                    ! Visible Absorptance

OS:Construction,
  {18afd076-8dbd-490b-b5e1-f06a5afdfe07}, ! Handle
  90.1-1999 Nonres B20 Roof Metal Building, ! Name
  ,                                       ! Surface Rendering Name
  {2b414757-c414-46f9-8fcd-e9c739ea2c08}, ! Layer 1
  {3cb88226-7f44-4bdd-83ff-07bcbf665142}; ! Layer 2

OS:Material,
  {2b414757-c414-46f9-8fcd-e9c739ea2c08}, ! Handle
  Metal Roofing,                          ! Name
  MediumSmooth,                           ! Roughness
  0.001524,                               ! Thickness {m}
  45.006,                                 ! Conductivity {W/m-K}
  7680,                                   ! Density {kg/m3}
  418.4,                                  ! Specific Heat {J/kg-K}
  0.9,                                    ! Thermal Absorptance
  0.7,                                    ! Solar Absorptance
  0.3;                                    ! Visible Absorptance

