
OS:Version,
  {54bd413a-cba9-440c-bb9a-a15fca6a4018}, ! Handle
  0.9.3;                                  ! Version Identifier

OS:Material,
  {2d9da17c-dd63-446a-ae3b-30ffdb9ab03a}, ! Handle
  Roof Insulation [5],                    ! Name
  MediumRough,                            ! Roughness
  0.286906,                               ! Thickness {m}
  0.049,                                  ! Conductivity {W/m-K}
  265,                                    ! Density {kg/m3}
  836.8,                                  ! Specific Heat {J/kg-K}
  0.9,                                    ! Thermal Absorptance
  0.7,                                    ! Solar Absorptance
  0.7;                                    ! Visible Absorptance

OS:Material,
  {62627c96-6b78-45a1-8cfe-d6fb78cdc8fa}, ! Handle
  Wood Shingles,                          ! Name
  VeryRough,                              ! Roughness
  0.0178,                                 ! Thickness {m}
  0.115,                                  ! Conductivity {W/m-K}
  513,                                    ! Density {kg/m3}
  1255,                                   ! Specific Heat {J/kg-K}
  0.9,                                    ! Thermal Absorptance
  0.78,                                   ! Solar Absorptance
  0.78;                                   ! Visible Absorptance

OS:ComponentCost:LineItem,
  {e6a98566-f537-4e62-852e-a5891e3785f9}, ! Handle
  90.1-1999 Res B5 Roof Attic and Other,  ! Name
  ,                                       ! Type
  Construction,                           ! Line Item Type
  90.1-1999 Res B5 Roof Attic and Other,  ! Item Name
  ,                                       ! Object End Use Key
  ,                                       ! Quantity {dimensionless}
  34.757,                                 ! Material Cost {$}
  CostPerArea;                            ! Material Cost Units

OS:Material,
  {083207d0-1f18-4968-808e-fb2d2881bb2c}, ! Handle
  1/2IN Gypsum,                           ! Name
  Smooth,                                 ! Roughness
  0.01271,                                ! Thickness {m}
  0.16,                                   ! Conductivity {W/m-K}
  784.9,                                  ! Density {kg/m3}
  830,                                    ! Specific Heat {J/kg-K}
  0.9,                                    ! Thermal Absorptance
  0.92,                                   ! Solar Absorptance
  0.92;                                   ! Visible Absorptance

OS:Material,
  {e547b17c-9611-4b51-a343-ff52c62b09a4}, ! Handle
  1IN Wood Decking,                       ! Name
  MediumSmooth,                           ! Roughness
  0.0254,                                 ! Thickness {m}
  0.1211,                                 ! Conductivity {W/m-K}
  593,                                    ! Density {kg/m3}
  2510,                                   ! Specific Heat {J/kg-K}
  0.9,                                    ! Thermal Absorptance
  0.78,                                   ! Solar Absorptance
  0.78;                                   ! Visible Absorptance

OS:Construction,
  {13f87444-582e-4f6f-a452-3632c4ffcca8}, ! Handle
  90.1-1999 Res B5 Roof Attic and Other,  ! Name
  ,                                       ! Surface Rendering Name
  {62627c96-6b78-45a1-8cfe-d6fb78cdc8fa}, ! Layer 1
  {e547b17c-9611-4b51-a343-ff52c62b09a4}, ! Layer 2
  {2d9da17c-dd63-446a-ae3b-30ffdb9ab03a}, ! Layer 3
  {083207d0-1f18-4968-808e-fb2d2881bb2c}; ! Layer 4

