
OS:Version,
  {1ad500ad-8cf1-48b2-81c0-de24e4e62266}, ! Handle
  0.9.3;                                  ! Version Identifier

OS:Construction,
  {f908d3b5-c67d-4e44-a385-5224eb5ea4cc}, ! Handle
  90.1-2004 Res 4B Window Fixed,          ! Name
  ,                                       ! Surface Rendering Name
  {432425d7-6942-431a-a52f-ee1a365efc1d}; ! Layer 1

OS:WindowMaterial:Glazing,
  {432425d7-6942-431a-a52f-ee1a365efc1d}, ! Handle
  Theoretical Glass [145],                ! Name
  SpectralAverage,                        ! Optical Data Type
  ,                                       ! Window Glass Spectral Data Set Name
  0.003,                                  ! Thickness {m}
  0.354957,                               ! Solar Transmittance at Normal Incidence
  0.595043,                               ! Front Side Solar Reflectance at Normal Incidence
  0.595043,                               ! Back Side Solar Reflectance at Normal Incidence
  0.457336,                               ! Visible Transmittance at Normal Incidence
  0.492664,                               ! Front Side Visible Reflectance at Normal Incidence
  0.492664,                               ! Back Side Visible Reflectance at Normal Incidence
  0,                                      ! Infrared Transmittance at Normal Incidence
  0.9,                                    ! Front Side Infrared Hemispherical Emissivity
  0.9,                                    ! Back Side Infrared Hemispherical Emissivity
  0.0134755;                              ! Conductivity {W/m-K}

OS:ComponentCost:LineItem,
  {30e6a2d4-6c75-4a34-b1d4-01ba035597dd}, ! Handle
  90.1-2004 Res 4B Window Fixed,          ! Name
  ,                                       ! Type
  Construction,                           ! Line Item Type
  90.1-2004 Res 4B Window Fixed,          ! Item Name
  ,                                       ! Object End Use Key
  ,                                       ! Quantity {dimensionless}
  544.731,                                ! Material Cost {$}
  CostPerArea;                            ! Material Cost Units

