
OS:Version,
  {bebae24a-ef94-4f30-8e4f-e59445130a76}, ! Handle
  0.9.3;                                  ! Version Identifier

OS:Construction,
  {dc3aacb4-27dc-4270-b3e5-1b9b23fb05a3}, ! Handle
  90.1-1999 Nonres B25 Ext Slab Unheated - 8in Slab with Carpet, ! Name
  ,                                       ! Surface Rendering Name
  {60fd5c75-4cd1-49e6-9c8b-56cc8d0c6933}, ! Layer 1
  {5197ea53-590e-4323-81d3-bed940b904c2}; ! Layer 2

OS:Material,
  {60fd5c75-4cd1-49e6-9c8b-56cc8d0c6933}, ! Handle
  MAT-CC05 8 HW CONCRETE,                 ! Name
  Rough,                                  ! Roughness
  0.20321,                                ! Thickness {m}
  1.311,                                  ! Conductivity {W/m-K}
  2240,                                   ! Density {kg/m3}
  836.8,                                  ! Specific Heat {J/kg-K}
  0.9,                                    ! Thermal Absorptance
  0.7,                                    ! Solar Absorptance
  0.7;                                    ! Visible Absorptance

OS:Material:NoMass,
  {5197ea53-590e-4323-81d3-bed940b904c2}, ! Handle
  CP02 CARPET PAD,                        ! Name
  VeryRough,                              ! Roughness
  0.21648,                                ! Thermal Resistance {m2-K/W}
  0.9,                                    ! Thermal Absorptance
  0.7,                                    ! Solar Absorptance
  0.8;                                    ! Visible Absorptance

OS:ComponentCost:LineItem,
  {d4c85bf6-9c0a-4273-82a7-bc77bf7b6ce7}, ! Handle
  90.1-1999 Nonres B25 Ext Slab Unheated - 8in Slab with Carpet, ! Name
  ,                                       ! Type
  Construction,                           ! Line Item Type
  90.1-1999 Nonres B25 Ext Slab Unheated - 8in Slab with Carpet, ! Item Name
  ,                                       ! Object End Use Key
  ,                                       ! Quantity {dimensionless}
  45.52,                                  ! Material Cost {$}
  CostPerArea;                            ! Material Cost Units

OS:ComponentData,
  {4318536d-2c14-4290-b9d2-44380cb4d7ed}, ! Handle
  Component Data 1,                       ! Name
  {1a76a8dd-5a7f-4630-99d8-8517fd23e9dd}, ! UUID
  {4a84bb43-a98b-4445-85ce-8f1cf4ff6c14}, ! Version UUID
  1363981153,                             ! Creation Timestamp
  1363981153,                             ! Version Timestamp
  {dc3aacb4-27dc-4270-b3e5-1b9b23fb05a3}, ! Name of Object 1
  {60fd5c75-4cd1-49e6-9c8b-56cc8d0c6933}, ! Name of Object 2
  {5197ea53-590e-4323-81d3-bed940b904c2}, ! Name of Object 3
  {d4c85bf6-9c0a-4273-82a7-bc77bf7b6ce7}; ! Name of Object 4

