
OS:Version,
  {b4d18a24-7ce3-483a-842f-bd91ac8cb69f}, ! Handle
  0.9.3;                                  ! Version Identifier

OS:Construction,
  {483cc815-2417-4c13-a20e-4d3b4feae5df}, ! Handle
  90.1-2004 Nonres 4B Attic Floor,        ! Name
  ,                                       ! Surface Rendering Name
  {de1758f5-f06c-4a26-b9cd-839c354179cf}, ! Layer 1
  {d99f7141-9c03-4e87-9293-f707d7a062be}, ! Layer 2
  {c8e62d40-b079-4241-af30-0a1f19387c2b}; ! Layer 3

OS:Material,
  {de1758f5-f06c-4a26-b9cd-839c354179cf}, ! Handle
  1/2IN Gypsum Top,                       ! Name
  Smooth,                                 ! Roughness
  0.01271,                                ! Thickness {m}
  0.16,                                   ! Conductivity {W/m-K}
  784.9,                                  ! Density {kg/m3}
  830,                                    ! Specific Heat {J/kg-K}
  0.9,                                    ! Thermal Absorptance
  0.92,                                   ! Solar Absorptance
  0.92;                                   ! Visible Absorptance

OS:Material,
  {d99f7141-9c03-4e87-9293-f707d7a062be}, ! Handle
  AtticFloor Insulation,                  ! Name
  MediumRough,                            ! Roughness
  0.237853,                               ! Thickness {m}
  0.049,                                  ! Conductivity {W/m-K}
  265,                                    ! Density {kg/m3}
  836.8,                                  ! Specific Heat {J/kg-K}
  0.9,                                    ! Thermal Absorptance
  0.7,                                    ! Solar Absorptance
  0.7;                                    ! Visible Absorptance

OS:Material,
  {c8e62d40-b079-4241-af30-0a1f19387c2b}, ! Handle
  1/2IN Gypsum Bottom,                    ! Name
  Smooth,                                 ! Roughness
  0.01271,                                ! Thickness {m}
  0.16,                                   ! Conductivity {W/m-K}
  784.9,                                  ! Density {kg/m3}
  830,                                    ! Specific Heat {J/kg-K}
  0.9,                                    ! Thermal Absorptance
  0.92,                                   ! Solar Absorptance
  0.92;                                   ! Visible Absorptance

OS:ComponentCost:LineItem,
  {da09e33c-b665-436d-a241-9f51b145d7fa}, ! Handle
  90.1-2004 Nonres 4B Attic Floor,        ! Name
  ,                                       ! Type
  Construction,                           ! Line Item Type
  90.1-2004 Nonres 4B Attic Floor,        ! Item Name
  ,                                       ! Object End Use Key
  ,                                       ! Quantity {dimensionless}
  33.596,                                 ! Material Cost {$}
  CostPerArea;                            ! Material Cost Units

OS:ComponentData,
  {4527e1f9-5cec-42a5-9f07-f4c05d0ea38c}, ! Handle
  Component Data 1,                       ! Name
  {bc0154c5-64d7-4b20-8540-dda069b85cd0}, ! UUID
  {a5b537c9-67c1-4ab6-add7-e03faf4d4049}, ! Version UUID
  1363981668,                             ! Creation Timestamp
  1363981668,                             ! Version Timestamp
  {483cc815-2417-4c13-a20e-4d3b4feae5df}, ! Name of Object 1
  {de1758f5-f06c-4a26-b9cd-839c354179cf}, ! Name of Object 2
  {d99f7141-9c03-4e87-9293-f707d7a062be}, ! Name of Object 3
  {c8e62d40-b079-4241-af30-0a1f19387c2b}, ! Name of Object 4
  {da09e33c-b665-436d-a241-9f51b145d7fa}; ! Name of Object 5

