
OS:Version,
  {2e3e45fe-6f63-4776-9052-c65e35e20c91}, ! Handle
  0.9.3;                                  ! Version Identifier

OS:Construction,
  {f39cdd88-9e25-4903-be57-4f2a391aadd7}, ! Handle
  90.1-2001 Res B12 Ext Slab Unheated - 8in Slab without Carpet, ! Name
  ,                                       ! Surface Rendering Name
  {7caa7b43-c0ab-4fe8-babb-0eec068261f0}; ! Layer 1

OS:Material,
  {7caa7b43-c0ab-4fe8-babb-0eec068261f0}, ! Handle
  MAT-CC05 8 HW CONCRETE,                 ! Name
  Rough,                                  ! Roughness
  0.20321,                                ! Thickness {m}
  1.311,                                  ! Conductivity {W/m-K}
  2240,                                   ! Density {kg/m3}
  836.8,                                  ! Specific Heat {J/kg-K}
  0.9,                                    ! Thermal Absorptance
  0.7,                                    ! Solar Absorptance
  0.7;                                    ! Visible Absorptance

OS:ComponentCost:LineItem,
  {cc54d0d4-75cb-43c1-86db-bd9af582e35d}, ! Handle
  90.1-2001 Res B12 Ext Slab Unheated - 8in Slab without Carpet, ! Name
  ,                                       ! Type
  Construction,                           ! Line Item Type
  90.1-2001 Res B12 Ext Slab Unheated - 8in Slab without Carpet, ! Item Name
  ,                                       ! Object End Use Key
  ,                                       ! Quantity {dimensionless}
  45.52,                                  ! Material Cost {$}
  CostPerArea;                            ! Material Cost Units

