
OS:Version,
  {56cf1f27-1321-46e9-ab1e-4afc3472acae}, ! Handle
  0.9.3;                                  ! Version Identifier

OS:WindowMaterial:Glazing,
  {db8abbe2-2439-4db8-8ed7-4df4238dcfe0}, ! Handle
  Theoretical Glass [384],                ! Name
  SpectralAverage,                        ! Optical Data Type
  ,                                       ! Window Glass Spectral Data Set Name
  0.003,                                  ! Thickness {m}
  0.375039,                               ! Solar Transmittance at Normal Incidence
  0.574961,                               ! Front Side Solar Reflectance at Normal Incidence
  0.574961,                               ! Back Side Solar Reflectance at Normal Incidence
  0.529698,                               ! Visible Transmittance at Normal Incidence
  0.420302,                               ! Front Side Visible Reflectance at Normal Incidence
  0.420302,                               ! Back Side Visible Reflectance at Normal Incidence
  0,                                      ! Infrared Transmittance at Normal Incidence
  0.9,                                    ! Front Side Infrared Hemispherical Emissivity
  0.9,                                    ! Back Side Infrared Hemispherical Emissivity
  0.0103561;                              ! Conductivity {W/m-K}

OS:Construction,
  {b877b92f-5e90-48eb-a3d4-1d316a4f618b}, ! Handle
  90.1 Windows Window Fixed 2522 Vnl-Grn-Std-ClrPye, ! Name
  ,                                       ! Surface Rendering Name
  {db8abbe2-2439-4db8-8ed7-4df4238dcfe0}; ! Layer 1

OS:ComponentCost:LineItem,
  {532b037d-e4f5-4f23-b091-16cae9249acf}, ! Handle
  90.1 Windows Window Fixed 2522 Vnl-Grn-Std-ClrPye, ! Name
  ,                                       ! Type
  Construction,                           ! Line Item Type
  90.1 Windows Window Fixed 2522 Vnl-Grn-Std-ClrPye, ! Item Name
  ,                                       ! Object End Use Key
  ,                                       ! Quantity {dimensionless}
  0,                                      ! Material Cost {$}
  CostPerArea;                            ! Material Cost Units

