
OS:Version,
  {2c50f522-1575-4b95-8185-e5e36e5113a5}, ! Handle
  0.9.3;                                  ! Version Identifier

OS:Construction,
  {07b85ac7-5b63-43c5-9825-8d791d74d9f5}, ! Handle
  90.1-2004 Nonres 1A Ext Wall Steel-Framed, ! Name
  ,                                       ! Surface Rendering Name
  {2887c5b9-5429-40f7-a49c-deb9b9b5f13f}, ! Layer 1
  {72c529fc-a718-4f18-8c88-ea6ae8e2a78e}, ! Layer 2
  {c6e3b088-c914-4ae9-80d4-935c76411472}; ! Layer 3

OS:Material:NoMass,
  {2887c5b9-5429-40f7-a49c-deb9b9b5f13f}, ! Handle
  MAT-SHEATH,                             ! Name
  Rough,                                  ! Roughness
  0.36256,                                ! Thermal Resistance {m2-K/W}
  0.9,                                    ! Thermal Absorptance
  0.7,                                    ! Solar Absorptance
  0.7;                                    ! Visible Absorptance

OS:Material,
  {72c529fc-a718-4f18-8c88-ea6ae8e2a78e}, ! Handle
  Wall Insulation [1],                    ! Name
  MediumRough,                            ! Roughness
  0.0373223,                              ! Thickness {m}
  0.045,                                  ! Conductivity {W/m-K}
  265,                                    ! Density {kg/m3}
  836.8,                                  ! Specific Heat {J/kg-K}
  0.9,                                    ! Thermal Absorptance
  0.7,                                    ! Solar Absorptance
  0.7;                                    ! Visible Absorptance

OS:Material,
  {c6e3b088-c914-4ae9-80d4-935c76411472}, ! Handle
  1/2IN Gypsum,                           ! Name
  Smooth,                                 ! Roughness
  0.01271,                                ! Thickness {m}
  0.16,                                   ! Conductivity {W/m-K}
  784.9,                                  ! Density {kg/m3}
  830,                                    ! Specific Heat {J/kg-K}
  0.9,                                    ! Thermal Absorptance
  0.92,                                   ! Solar Absorptance
  0.92;                                   ! Visible Absorptance

OS:ComponentCost:LineItem,
  {a161b758-6799-4310-8936-45525c876a50}, ! Handle
  90.1-2004 Nonres 1A Ext Wall Steel-Framed, ! Name
  ,                                       ! Type
  Construction,                           ! Line Item Type
  90.1-2004 Nonres 1A Ext Wall Steel-Framed, ! Item Name
  ,                                       ! Object End Use Key
  ,                                       ! Quantity {dimensionless}
  87.08,                                  ! Material Cost {$}
  CostPerArea;                            ! Material Cost Units

OS:ComponentData,
  {3412372e-ca56-45b0-ba92-f42d568a4f6f}, ! Handle
  Component Data 1,                       ! Name
  {b62b0c3e-9a82-4d4b-8b71-d23ff66b573e}, ! UUID
  {56fbfd4a-3b4f-4f85-81c1-bec946fdd26e}, ! Version UUID
  1363981629,                             ! Creation Timestamp
  1363981629,                             ! Version Timestamp
  {07b85ac7-5b63-43c5-9825-8d791d74d9f5}, ! Name of Object 1
  {2887c5b9-5429-40f7-a49c-deb9b9b5f13f}, ! Name of Object 2
  {72c529fc-a718-4f18-8c88-ea6ae8e2a78e}, ! Name of Object 3
  {c6e3b088-c914-4ae9-80d4-935c76411472}, ! Name of Object 4
  {a161b758-6799-4310-8936-45525c876a50}; ! Name of Object 5

