
OS:Version,
  {d8799a37-33e2-40e6-99f7-55ae03cc51bf}, ! Handle
  0.9.3;                                  ! Version Identifier

OS:Material,
  {321e11d5-b6ab-4fc4-a1b1-4c83b5968f44}, ! Handle
  1/2IN Gypsum,                           ! Name
  Smooth,                                 ! Roughness
  0.01271,                                ! Thickness {m}
  0.16,                                   ! Conductivity {W/m-K}
  784.9,                                  ! Density {kg/m3}
  830,                                    ! Specific Heat {J/kg-K}
  0.9,                                    ! Thermal Absorptance
  0.92,                                   ! Solar Absorptance
  0.92;                                   ! Visible Absorptance

OS:Material,
  {35f44bd9-363a-4f13-a733-2187892546c0}, ! Handle
  Wall Insulation [159],                  ! Name
  MediumRough,                            ! Roughness
  0.0812,                                 ! Thickness {m}
  0.045,                                  ! Conductivity {W/m-K}
  265,                                    ! Density {kg/m3}
  836.8,                                  ! Specific Heat {J/kg-K}
  0.9,                                    ! Thermal Absorptance
  0.7,                                    ! Solar Absorptance
  0.7;                                    ! Visible Absorptance

OS:Construction,
  {b527f708-d0e6-4e6e-8506-cd880bb1e9c1}, ! Handle
  Title 24-2008 Nonres 12 Ext Wall Metal Building, ! Name
  ,                                       ! Surface Rendering Name
  {8fae2502-7f68-459f-8422-bbbb40dd124c}, ! Layer 1
  {35f44bd9-363a-4f13-a733-2187892546c0}, ! Layer 2
  {321e11d5-b6ab-4fc4-a1b1-4c83b5968f44}; ! Layer 3

OS:Material,
  {8fae2502-7f68-459f-8422-bbbb40dd124c}, ! Handle
  Metal Siding,                           ! Name
  Smooth,                                 ! Roughness
  0.0015,                                 ! Thickness {m}
  44.96,                                  ! Conductivity {W/m-K}
  7688.86,                                ! Density {kg/m3}
  410,                                    ! Specific Heat {J/kg-K}
  0.9,                                    ! Thermal Absorptance
  0.2,                                    ! Solar Absorptance
  0.2;                                    ! Visible Absorptance

OS:ComponentCost:LineItem,
  {232d76c7-c61b-4eb9-83aa-12fbe5fc57bf}, ! Handle
  Title 24-2008 Nonres 12 Ext Wall Metal Building, ! Name
  ,                                       ! Type
  Construction,                           ! Line Item Type
  Title 24-2008 Nonres 12 Ext Wall Metal Building, ! Item Name
  ,                                       ! Object End Use Key
  ,                                       ! Quantity {dimensionless}
  184.211,                                ! Material Cost {$}
  CostPerArea;                            ! Material Cost Units

