
OS:Version,
  {ace71950-ddaa-446b-a51a-7e2fe36f43f5}, ! Handle
  0.9.3;                                  ! Version Identifier

OS:Construction,
  {271ac3f7-5338-4f71-9069-1175847740bc}, ! Handle
  90.1 Windows Window Fixed 2412 Brk-Grn-Ins-Clr, ! Name
  ,                                       ! Surface Rendering Name
  {c0073c19-e9c8-4f33-bbbc-f3f2341e0dc9}; ! Layer 1

OS:WindowMaterial:Glazing,
  {c0073c19-e9c8-4f33-bbbc-f3f2341e0dc9}, ! Handle
  Theoretical Glass [316],                ! Name
  SpectralAverage,                        ! Optical Data Type
  ,                                       ! Window Glass Spectral Data Set Name
  0.003,                                  ! Thickness {m}
  0.462282,                               ! Solar Transmittance at Normal Incidence
  0.487718,                               ! Front Side Solar Reflectance at Normal Incidence
  0.487718,                               ! Back Side Solar Reflectance at Normal Incidence
  0.599285,                               ! Visible Transmittance at Normal Incidence
  0.350715,                               ! Front Side Visible Reflectance at Normal Incidence
  0.350715,                               ! Back Side Visible Reflectance at Normal Incidence
  0,                                      ! Infrared Transmittance at Normal Incidence
  0.9,                                    ! Front Side Infrared Hemispherical Emissivity
  0.9,                                    ! Back Side Infrared Hemispherical Emissivity
  0.0213046;                              ! Conductivity {W/m-K}

OS:ComponentCost:LineItem,
  {60413f9c-39cd-4424-8379-3b08c2cc315a}, ! Handle
  90.1 Windows Window Fixed 2412 Brk-Grn-Ins-Clr, ! Name
  ,                                       ! Type
  Construction,                           ! Line Item Type
  90.1 Windows Window Fixed 2412 Brk-Grn-Ins-Clr, ! Item Name
  ,                                       ! Object End Use Key
  ,                                       ! Quantity {dimensionless}
  0,                                      ! Material Cost {$}
  CostPerArea;                            ! Material Cost Units

OS:ComponentData,
  {313d5eda-48ec-4031-b88f-5bbd1eb4d26a}, ! Handle
  Component Data 1,                       ! Name
  {431122b1-b233-40fa-9bc2-8617b6ad2f12}, ! UUID
  {4ee4bb40-6226-4203-9c8f-a1eed6e5e58b}, ! Version UUID
  1363981006,                             ! Creation Timestamp
  1363981006,                             ! Version Timestamp
  {271ac3f7-5338-4f71-9069-1175847740bc}, ! Name of Object 1
  {c0073c19-e9c8-4f33-bbbc-f3f2341e0dc9}, ! Name of Object 2
  {60413f9c-39cd-4424-8379-3b08c2cc315a}; ! Name of Object 3

