
OS:Version,
  {3c0acfdf-4111-4b3d-bb2f-9c9344ea841e}, ! Handle
  0.9.3;                                  ! Version Identifier

OS:ComponentCost:LineItem,
  {27abadf1-08b9-4780-8639-b58ca4130b70}, ! Handle
  90.1 Windows Window Fixed 2412 Brk-Grn-Ins-Clr, ! Name
  ,                                       ! Type
  Construction,                           ! Line Item Type
  90.1 Windows Window Fixed 2412 Brk-Grn-Ins-Clr, ! Item Name
  ,                                       ! Object End Use Key
  ,                                       ! Quantity {dimensionless}
  0,                                      ! Material Cost {$}
  CostPerArea;                            ! Material Cost Units

OS:Construction,
  {abf02e28-c51f-4452-b756-63b9dbdc15d9}, ! Handle
  90.1 Windows Window Fixed 2412 Brk-Grn-Ins-Clr, ! Name
  ,                                       ! Surface Rendering Name
  {cb15f82d-fb34-4ea0-8c05-032e1f3f5a9e}; ! Layer 1

OS:WindowMaterial:Glazing,
  {cb15f82d-fb34-4ea0-8c05-032e1f3f5a9e}, ! Handle
  Theoretical Glass [316],                ! Name
  SpectralAverage,                        ! Optical Data Type
  ,                                       ! Window Glass Spectral Data Set Name
  0.003,                                  ! Thickness {m}
  0.462282,                               ! Solar Transmittance at Normal Incidence
  0.487718,                               ! Front Side Solar Reflectance at Normal Incidence
  0.487718,                               ! Back Side Solar Reflectance at Normal Incidence
  0.599285,                               ! Visible Transmittance at Normal Incidence
  0.350715,                               ! Front Side Visible Reflectance at Normal Incidence
  0.350715,                               ! Back Side Visible Reflectance at Normal Incidence
  0,                                      ! Infrared Transmittance at Normal Incidence
  0.9,                                    ! Front Side Infrared Hemispherical Emissivity
  0.9,                                    ! Back Side Infrared Hemispherical Emissivity
  0.0213046;                              ! Conductivity {W/m-K}

