
OS:Version,
  {04af597a-29d5-4205-bbe3-9d8c40493b17}, ! Handle
  0.9.3;                                  ! Version Identifier

OS:ComponentCost:LineItem,
  {5b393c15-e51a-4654-854b-6b2bb77113db}, ! Handle
  90.1 Windows Window Fixed 2450 Brk-ClrPye-Ins-ClrPye, ! Name
  ,                                       ! Type
  Construction,                           ! Line Item Type
  90.1 Windows Window Fixed 2450 Brk-ClrPye-Ins-ClrPye, ! Item Name
  ,                                       ! Object End Use Key
  ,                                       ! Quantity {dimensionless}
  0,                                      ! Material Cost {$}
  CostPerArea;                            ! Material Cost Units

OS:Construction,
  {609eb6ca-89c8-4d38-beb6-5c499428a4a9}, ! Handle
  90.1 Windows Window Fixed 2450 Brk-ClrPye-Ins-ClrPye, ! Name
  ,                                       ! Surface Rendering Name
  {c47458a0-e84a-4fa2-a386-5547fc8e8be4}; ! Layer 1

OS:WindowMaterial:Glazing,
  {c47458a0-e84a-4fa2-a386-5547fc8e8be4}, ! Handle
  Theoretical Glass [581],                ! Name
  SpectralAverage,                        ! Optical Data Type
  ,                                       ! Window Glass Spectral Data Set Name
  0.003,                                  ! Thickness {m}
  0.574414,                               ! Solar Transmittance at Normal Incidence
  0.375586,                               ! Front Side Solar Reflectance at Normal Incidence
  0.375586,                               ! Back Side Solar Reflectance at Normal Incidence
  0.619384,                               ! Visible Transmittance at Normal Incidence
  0.330616,                               ! Front Side Visible Reflectance at Normal Incidence
  0.330616,                               ! Back Side Visible Reflectance at Normal Incidence
  0,                                      ! Infrared Transmittance at Normal Incidence
  0.9,                                    ! Front Side Infrared Hemispherical Emissivity
  0.9,                                    ! Back Side Infrared Hemispherical Emissivity
  0.0120657;                              ! Conductivity {W/m-K}

