
OS:Version,
  {f3fc088d-c3cf-4b7e-8321-3d3b9b3a35d9}, ! Handle
  0.9.3;                                  ! Version Identifier

OS:Construction,
  {00f3997c-f2d6-4df9-a768-d785381ac56a}, ! Handle
  90.1 Windows Window Fixed 2450 Brk-ClrPye-Ins-ClrPye, ! Name
  ,                                       ! Surface Rendering Name
  {791c3dc0-11d6-42b3-9838-d832f9bbb5c5}; ! Layer 1

OS:WindowMaterial:Glazing,
  {791c3dc0-11d6-42b3-9838-d832f9bbb5c5}, ! Handle
  Theoretical Glass [581],                ! Name
  SpectralAverage,                        ! Optical Data Type
  ,                                       ! Window Glass Spectral Data Set Name
  0.003,                                  ! Thickness {m}
  0.574414,                               ! Solar Transmittance at Normal Incidence
  0.375586,                               ! Front Side Solar Reflectance at Normal Incidence
  0.375586,                               ! Back Side Solar Reflectance at Normal Incidence
  0.619384,                               ! Visible Transmittance at Normal Incidence
  0.330616,                               ! Front Side Visible Reflectance at Normal Incidence
  0.330616,                               ! Back Side Visible Reflectance at Normal Incidence
  0,                                      ! Infrared Transmittance at Normal Incidence
  0.9,                                    ! Front Side Infrared Hemispherical Emissivity
  0.9,                                    ! Back Side Infrared Hemispherical Emissivity
  0.0120657;                              ! Conductivity {W/m-K}

OS:ComponentCost:LineItem,
  {d66ce014-9002-45a1-bc06-d4494767566b}, ! Handle
  90.1 Windows Window Fixed 2450 Brk-ClrPye-Ins-ClrPye, ! Name
  ,                                       ! Type
  Construction,                           ! Line Item Type
  90.1 Windows Window Fixed 2450 Brk-ClrPye-Ins-ClrPye, ! Item Name
  ,                                       ! Object End Use Key
  ,                                       ! Quantity {dimensionless}
  0,                                      ! Material Cost {$}
  CostPerArea;                            ! Material Cost Units

OS:ComponentData,
  {f31dda98-aa11-4213-8510-9b9b3d5eda8e}, ! Handle
  Component Data 1,                       ! Name
  {3d40765d-41dc-4aac-804b-eb064743eaee}, ! UUID
  {33dcc99c-083f-4a85-b7fc-aa67b5498566}, ! Version UUID
  1363981030,                             ! Creation Timestamp
  1363981030,                             ! Version Timestamp
  {00f3997c-f2d6-4df9-a768-d785381ac56a}, ! Name of Object 1
  {791c3dc0-11d6-42b3-9838-d832f9bbb5c5}, ! Name of Object 2
  {d66ce014-9002-45a1-bc06-d4494767566b}; ! Name of Object 3

