
OS:Version,
  {d0ed6d69-1ecc-4985-ac06-008f3a8b8feb}, ! Handle
  0.9.3;                                  ! Version Identifier

OS:ComponentCost:LineItem,
  {6f9914d9-e991-4a2e-a012-01c570b0cec4}, ! Handle
  90.1-1999 Nonres B21 Roof IEAD,         ! Name
  ,                                       ! Type
  Construction,                           ! Line Item Type
  90.1-1999 Nonres B21 Roof IEAD,         ! Item Name
  ,                                       ! Object End Use Key
  ,                                       ! Quantity {dimensionless}
  49.208,                                 ! Material Cost {$}
  CostPerArea;                            ! Material Cost Units

OS:Material,
  {6bbaf7c3-a8e8-4272-8f16-3b866fb87edd}, ! Handle
  Roof Membrane,                          ! Name
  VeryRough,                              ! Roughness
  0.0095,                                 ! Thickness {m}
  0.16,                                   ! Conductivity {W/m-K}
  1121.29,                                ! Density {kg/m3}
  1460,                                   ! Specific Heat {J/kg-K}
  0.9,                                    ! Thermal Absorptance
  0.7,                                    ! Solar Absorptance
  0.7;                                    ! Visible Absorptance

OS:Material,
  {687922e5-9f5b-4eda-9063-61118253bc05}, ! Handle
  Roof Insulation,                        ! Name
  MediumRough,                            ! Roughness
  0.124958,                               ! Thickness {m}
  0.049,                                  ! Conductivity {W/m-K}
  265,                                    ! Density {kg/m3}
  836.8,                                  ! Specific Heat {J/kg-K}
  0.9,                                    ! Thermal Absorptance
  0.7,                                    ! Solar Absorptance
  0.7;                                    ! Visible Absorptance

OS:Material,
  {0fbac209-8b6f-4814-bcfe-428bc5aef972}, ! Handle
  Metal Decking,                          ! Name
  MediumSmooth,                           ! Roughness
  0.001524,                               ! Thickness {m}
  45.006,                                 ! Conductivity {W/m-K}
  7680,                                   ! Density {kg/m3}
  418.4,                                  ! Specific Heat {J/kg-K}
  0.9,                                    ! Thermal Absorptance
  0.7,                                    ! Solar Absorptance
  0.3;                                    ! Visible Absorptance

OS:Construction,
  {3a7f2b51-b149-4868-94cc-5be6cf0fd08d}, ! Handle
  90.1-1999 Nonres B21 Roof IEAD,         ! Name
  ,                                       ! Surface Rendering Name
  {6bbaf7c3-a8e8-4272-8f16-3b866fb87edd}, ! Layer 1
  {687922e5-9f5b-4eda-9063-61118253bc05}, ! Layer 2
  {0fbac209-8b6f-4814-bcfe-428bc5aef972}; ! Layer 3

