
OS:Version,
  {580a01c9-fe8a-49e3-8dbf-229e6034f7df}, ! Handle
  0.9.3;                                  ! Version Identifier

OS:Construction,
  {0292265c-0b27-48bd-ad82-f80afb3b3576}, ! Handle
  90.1-1999 Nonres B21 Roof IEAD,         ! Name
  ,                                       ! Surface Rendering Name
  {763d1ac8-6e85-44a9-bbba-cc91329b7956}, ! Layer 1
  {84ef9aba-9006-43f6-b33f-d0767e097049}, ! Layer 2
  {a3165994-5b9e-404d-892a-f8fb3d5a9f8f}; ! Layer 3

OS:Material,
  {763d1ac8-6e85-44a9-bbba-cc91329b7956}, ! Handle
  Roof Membrane,                          ! Name
  VeryRough,                              ! Roughness
  0.0095,                                 ! Thickness {m}
  0.16,                                   ! Conductivity {W/m-K}
  1121.29,                                ! Density {kg/m3}
  1460,                                   ! Specific Heat {J/kg-K}
  0.9,                                    ! Thermal Absorptance
  0.7,                                    ! Solar Absorptance
  0.7;                                    ! Visible Absorptance

OS:Material,
  {84ef9aba-9006-43f6-b33f-d0767e097049}, ! Handle
  Roof Insulation,                        ! Name
  MediumRough,                            ! Roughness
  0.124958,                               ! Thickness {m}
  0.049,                                  ! Conductivity {W/m-K}
  265,                                    ! Density {kg/m3}
  836.8,                                  ! Specific Heat {J/kg-K}
  0.9,                                    ! Thermal Absorptance
  0.7,                                    ! Solar Absorptance
  0.7;                                    ! Visible Absorptance

OS:Material,
  {a3165994-5b9e-404d-892a-f8fb3d5a9f8f}, ! Handle
  Metal Decking,                          ! Name
  MediumSmooth,                           ! Roughness
  0.001524,                               ! Thickness {m}
  45.006,                                 ! Conductivity {W/m-K}
  7680,                                   ! Density {kg/m3}
  418.4,                                  ! Specific Heat {J/kg-K}
  0.9,                                    ! Thermal Absorptance
  0.7,                                    ! Solar Absorptance
  0.3;                                    ! Visible Absorptance

OS:ComponentCost:LineItem,
  {83f781fd-26f4-4546-aee9-6b477b54e8e4}, ! Handle
  90.1-1999 Nonres B21 Roof IEAD,         ! Name
  ,                                       ! Type
  Construction,                           ! Line Item Type
  90.1-1999 Nonres B21 Roof IEAD,         ! Item Name
  ,                                       ! Object End Use Key
  ,                                       ! Quantity {dimensionless}
  49.208,                                 ! Material Cost {$}
  CostPerArea;                            ! Material Cost Units

OS:ComponentData,
  {3fdd0259-8857-4359-aace-e9922790de7e}, ! Handle
  Component Data 1,                       ! Name
  {9ea65555-f3e4-4874-91f8-e197c2c72984}, ! UUID
  {bd119b24-a53b-4f1d-8b2e-369ce68e32fe}, ! Version UUID
  1363981132,                             ! Creation Timestamp
  1363981132,                             ! Version Timestamp
  {0292265c-0b27-48bd-ad82-f80afb3b3576}, ! Name of Object 1
  {763d1ac8-6e85-44a9-bbba-cc91329b7956}, ! Name of Object 2
  {84ef9aba-9006-43f6-b33f-d0767e097049}, ! Name of Object 3
  {a3165994-5b9e-404d-892a-f8fb3d5a9f8f}, ! Name of Object 4
  {83f781fd-26f4-4546-aee9-6b477b54e8e4}; ! Name of Object 5

