
OS:Version,
  {08e10697-15e3-451d-bd1f-012acc0bc5c3}, ! Handle
  0.9.3;                                  ! Version Identifier

OS:Material:NoMass,
  {d7830639-c663-41b3-a277-376d1c3761a4}, ! Handle
  CP02 CARPET PAD,                        ! Name
  VeryRough,                              ! Roughness
  0.21648,                                ! Thermal Resistance {m2-K/W}
  0.9,                                    ! Thermal Absorptance
  0.7,                                    ! Solar Absorptance
  0.8;                                    ! Visible Absorptance

OS:ComponentCost:LineItem,
  {dfa9fc9b-5006-451a-a434-19363863f5d3}, ! Handle
  90.1-2004 Res 3A Ext Slab Unheated - 8in Slab with Carpet, ! Name
  ,                                       ! Type
  Construction,                           ! Line Item Type
  90.1-2004 Res 3A Ext Slab Unheated - 8in Slab with Carpet, ! Item Name
  ,                                       ! Object End Use Key
  ,                                       ! Quantity {dimensionless}
  45.52,                                  ! Material Cost {$}
  CostPerArea;                            ! Material Cost Units

OS:Construction,
  {39e1fec7-ff20-4501-b57d-1e7a55ed5d42}, ! Handle
  90.1-2004 Res 3A Ext Slab Unheated - 8in Slab with Carpet, ! Name
  ,                                       ! Surface Rendering Name
  {b218fc68-d108-411c-ad1c-b177b0edc57d}, ! Layer 1
  {d7830639-c663-41b3-a277-376d1c3761a4}; ! Layer 2

OS:Material,
  {b218fc68-d108-411c-ad1c-b177b0edc57d}, ! Handle
  MAT-CC05 8 HW CONCRETE,                 ! Name
  Rough,                                  ! Roughness
  0.20321,                                ! Thickness {m}
  1.311,                                  ! Conductivity {W/m-K}
  2240,                                   ! Density {kg/m3}
  836.8,                                  ! Specific Heat {J/kg-K}
  0.9,                                    ! Thermal Absorptance
  0.7,                                    ! Solar Absorptance
  0.7;                                    ! Visible Absorptance

