
OS:Version,
  {da1c2834-e6d6-4e26-a81f-4b1739289b95}, ! Handle
  0.9.3;                                  ! Version Identifier

OS:Material,
  {cf8370d5-9abd-43e6-9ae6-ba48efab2c74}, ! Handle
  1/2IN Gypsum,                           ! Name
  Smooth,                                 ! Roughness
  0.01271,                                ! Thickness {m}
  0.16,                                   ! Conductivity {W/m-K}
  784.9,                                  ! Density {kg/m3}
  830,                                    ! Specific Heat {J/kg-K}
  0.9,                                    ! Thermal Absorptance
  0.92,                                   ! Solar Absorptance
  0.92;                                   ! Visible Absorptance

OS:Material:NoMass,
  {1b5447df-8211-4b33-8520-f9f331232421}, ! Handle
  MAT-SHEATH,                             ! Name
  Rough,                                  ! Roughness
  0.36256,                                ! Thermal Resistance {m2-K/W}
  0.9,                                    ! Thermal Absorptance
  0.7,                                    ! Solar Absorptance
  0.7;                                    ! Visible Absorptance

OS:Construction,
  {1f917ce3-5483-4029-860f-fad0162a6c97}, ! Handle
  90.1-2001 Res B16 Ext Wall Steel-Framed, ! Name
  ,                                       ! Surface Rendering Name
  {1b5447df-8211-4b33-8520-f9f331232421}, ! Layer 1
  {ec93669e-c58a-4e75-839b-3ad39b352665}, ! Layer 2
  {cf8370d5-9abd-43e6-9ae6-ba48efab2c74}; ! Layer 3

OS:Material,
  {ec93669e-c58a-4e75-839b-3ad39b352665}, ! Handle
  Wall Insulation [10],                   ! Name
  MediumRough,                            ! Roughness
  0.0971136,                              ! Thickness {m}
  0.045,                                  ! Conductivity {W/m-K}
  265,                                    ! Density {kg/m3}
  836.8,                                  ! Specific Heat {J/kg-K}
  0.9,                                    ! Thermal Absorptance
  0.7,                                    ! Solar Absorptance
  0.7;                                    ! Visible Absorptance

OS:ComponentCost:LineItem,
  {13348ada-94cc-4bac-8f64-c499e4b99205}, ! Handle
  90.1-2001 Res B16 Ext Wall Steel-Framed, ! Name
  ,                                       ! Type
  Construction,                           ! Line Item Type
  90.1-2001 Res B16 Ext Wall Steel-Framed, ! Item Name
  ,                                       ! Object End Use Key
  ,                                       ! Quantity {dimensionless}
  94.657,                                 ! Material Cost {$}
  CostPerArea;                            ! Material Cost Units

