
OS:Version,
  {4192317a-4325-4c33-9bca-102e401b0cb4}, ! Handle
  0.9.3;                                  ! Version Identifier

OS:Construction,
  {93d0b9c9-2b46-42d2-9e84-be14c65aa1f2}, ! Handle
  90.1-2001 Res B6 Ext Wall Steel-Framed, ! Name
  ,                                       ! Surface Rendering Name
  {8c5fbc66-6be9-405d-bec6-b9ff03716f7d}, ! Layer 1
  {a6ad4495-3348-4425-b09e-d262f933cc87}, ! Layer 2
  {3b93c8de-23c2-468f-8695-7b94bb6abe90}; ! Layer 3

OS:Material:NoMass,
  {8c5fbc66-6be9-405d-bec6-b9ff03716f7d}, ! Handle
  MAT-SHEATH,                             ! Name
  Rough,                                  ! Roughness
  0.36256,                                ! Thermal Resistance {m2-K/W}
  0.9,                                    ! Thermal Absorptance
  0.7,                                    ! Solar Absorptance
  0.7;                                    ! Visible Absorptance

OS:Material,
  {a6ad4495-3348-4425-b09e-d262f933cc87}, ! Handle
  Wall Insulation [1],                    ! Name
  MediumRough,                            ! Roughness
  0.0373223,                              ! Thickness {m}
  0.045,                                  ! Conductivity {W/m-K}
  265,                                    ! Density {kg/m3}
  836.8,                                  ! Specific Heat {J/kg-K}
  0.9,                                    ! Thermal Absorptance
  0.7,                                    ! Solar Absorptance
  0.7;                                    ! Visible Absorptance

OS:Material,
  {3b93c8de-23c2-468f-8695-7b94bb6abe90}, ! Handle
  1/2IN Gypsum,                           ! Name
  Smooth,                                 ! Roughness
  0.01271,                                ! Thickness {m}
  0.16,                                   ! Conductivity {W/m-K}
  784.9,                                  ! Density {kg/m3}
  830,                                    ! Specific Heat {J/kg-K}
  0.9,                                    ! Thermal Absorptance
  0.92,                                   ! Solar Absorptance
  0.92;                                   ! Visible Absorptance

OS:ComponentCost:LineItem,
  {3ddf72eb-e8ae-437d-a0b0-25fd62905de9}, ! Handle
  90.1-2001 Res B6 Ext Wall Steel-Framed, ! Name
  ,                                       ! Type
  Construction,                           ! Line Item Type
  90.1-2001 Res B6 Ext Wall Steel-Framed, ! Item Name
  ,                                       ! Object End Use Key
  ,                                       ! Quantity {dimensionless}
  87.08,                                  ! Material Cost {$}
  CostPerArea;                            ! Material Cost Units

OS:ComponentData,
  {9d70f733-e89c-42a5-8d32-d68c5106e7d7}, ! Handle
  Component Data 1,                       ! Name
  {5ecfa9fe-c9e0-4593-9aaa-cd086ff977f5}, ! UUID
  {d7af6e6e-7779-42b3-90dd-42d4f84bd324}, ! Version UUID
  1363981477,                             ! Creation Timestamp
  1363981477,                             ! Version Timestamp
  {93d0b9c9-2b46-42d2-9e84-be14c65aa1f2}, ! Name of Object 1
  {8c5fbc66-6be9-405d-bec6-b9ff03716f7d}, ! Name of Object 2
  {a6ad4495-3348-4425-b09e-d262f933cc87}, ! Name of Object 3
  {3b93c8de-23c2-468f-8695-7b94bb6abe90}, ! Name of Object 4
  {3ddf72eb-e8ae-437d-a0b0-25fd62905de9}; ! Name of Object 5

