
OS:Version,
  {5709954c-8355-4c69-bb95-eff4e9afa79d}, ! Handle
  0.9.3;                                  ! Version Identifier

OS:Material,
  {13a4a810-79ab-4444-9271-83f7cbd0432c}, ! Handle
  Wall Insulation [1],                    ! Name
  MediumRough,                            ! Roughness
  0.0373223,                              ! Thickness {m}
  0.045,                                  ! Conductivity {W/m-K}
  265,                                    ! Density {kg/m3}
  836.8,                                  ! Specific Heat {J/kg-K}
  0.9,                                    ! Thermal Absorptance
  0.7,                                    ! Solar Absorptance
  0.7;                                    ! Visible Absorptance

OS:Construction,
  {783e706f-00b4-4071-9ed3-23325d8b0f60}, ! Handle
  90.1-2001 Res B6 Ext Wall Steel-Framed, ! Name
  ,                                       ! Surface Rendering Name
  {4cb4d1a7-cd40-46f9-b4f4-7b7b6c33b4b9}, ! Layer 1
  {13a4a810-79ab-4444-9271-83f7cbd0432c}, ! Layer 2
  {1d28e4d0-bdb3-4fcf-aa04-6b883aa07527}; ! Layer 3

OS:Material:NoMass,
  {4cb4d1a7-cd40-46f9-b4f4-7b7b6c33b4b9}, ! Handle
  MAT-SHEATH,                             ! Name
  Rough,                                  ! Roughness
  0.36256,                                ! Thermal Resistance {m2-K/W}
  0.9,                                    ! Thermal Absorptance
  0.7,                                    ! Solar Absorptance
  0.7;                                    ! Visible Absorptance

OS:Material,
  {1d28e4d0-bdb3-4fcf-aa04-6b883aa07527}, ! Handle
  1/2IN Gypsum,                           ! Name
  Smooth,                                 ! Roughness
  0.01271,                                ! Thickness {m}
  0.16,                                   ! Conductivity {W/m-K}
  784.9,                                  ! Density {kg/m3}
  830,                                    ! Specific Heat {J/kg-K}
  0.9,                                    ! Thermal Absorptance
  0.92,                                   ! Solar Absorptance
  0.92;                                   ! Visible Absorptance

OS:ComponentCost:LineItem,
  {96b88c15-d480-4777-8898-5bc2e0e69cbb}, ! Handle
  90.1-2001 Res B6 Ext Wall Steel-Framed, ! Name
  ,                                       ! Type
  Construction,                           ! Line Item Type
  90.1-2001 Res B6 Ext Wall Steel-Framed, ! Item Name
  ,                                       ! Object End Use Key
  ,                                       ! Quantity {dimensionless}
  87.08,                                  ! Material Cost {$}
  CostPerArea;                            ! Material Cost Units

