
OS:Version,
  {5a2420b3-c377-4344-8a6f-a510e7613d2f}, ! Handle
  0.9.3;                                  ! Version Identifier

OS:Construction,
  {2ad64e7d-aaca-47c6-9393-05eb055cb4c9}, ! Handle
  90.1-1999 Nonres B8 Ext Wall Metal Building, ! Name
  ,                                       ! Surface Rendering Name
  {b9abaac6-b308-48bb-a71e-854d33159fc0}, ! Layer 1
  {7e3df544-e2cf-4d71-9723-9e2e4440882f}, ! Layer 2
  {3c0b168d-d30b-4a96-8cfd-68f328776980}; ! Layer 3

OS:Material,
  {b9abaac6-b308-48bb-a71e-854d33159fc0}, ! Handle
  Metal Siding,                           ! Name
  Smooth,                                 ! Roughness
  0.0015,                                 ! Thickness {m}
  44.96,                                  ! Conductivity {W/m-K}
  7688.86,                                ! Density {kg/m3}
  410,                                    ! Specific Heat {J/kg-K}
  0.9,                                    ! Thermal Absorptance
  0.2,                                    ! Solar Absorptance
  0.2;                                    ! Visible Absorptance

OS:Material,
  {7e3df544-e2cf-4d71-9723-9e2e4440882f}, ! Handle
  Wall Insulation,                        ! Name
  MediumRough,                            ! Roughness
  0.0598725,                              ! Thickness {m}
  0.045,                                  ! Conductivity {W/m-K}
  265,                                    ! Density {kg/m3}
  836.8,                                  ! Specific Heat {J/kg-K}
  0.9,                                    ! Thermal Absorptance
  0.7,                                    ! Solar Absorptance
  0.7;                                    ! Visible Absorptance

OS:Material,
  {3c0b168d-d30b-4a96-8cfd-68f328776980}, ! Handle
  1/2IN Gypsum,                           ! Name
  Smooth,                                 ! Roughness
  0.01271,                                ! Thickness {m}
  0.16,                                   ! Conductivity {W/m-K}
  784.9,                                  ! Density {kg/m3}
  830,                                    ! Specific Heat {J/kg-K}
  0.9,                                    ! Thermal Absorptance
  0.92,                                   ! Solar Absorptance
  0.92;                                   ! Visible Absorptance

OS:ComponentCost:LineItem,
  {00a097fd-7d2b-4794-bbbd-b883c4ecf3cd}, ! Handle
  90.1-1999 Nonres B8 Ext Wall Metal Building, ! Name
  ,                                       ! Type
  Construction,                           ! Line Item Type
  90.1-1999 Nonres B8 Ext Wall Metal Building, ! Item Name
  ,                                       ! Object End Use Key
  ,                                       ! Quantity {dimensionless}
  98.78,                                  ! Material Cost {$}
  CostPerArea;                            ! Material Cost Units

OS:ComponentData,
  {0df95584-2c3a-416d-b964-3daa50a5efba}, ! Handle
  Component Data 1,                       ! Name
  {857b2094-a3b7-4745-abaa-27c010296541}, ! UUID
  {aafd3d78-57fc-48dd-ac60-7438bbffa4f6}, ! Version UUID
  1363981071,                             ! Creation Timestamp
  1363981071,                             ! Version Timestamp
  {2ad64e7d-aaca-47c6-9393-05eb055cb4c9}, ! Name of Object 1
  {b9abaac6-b308-48bb-a71e-854d33159fc0}, ! Name of Object 2
  {7e3df544-e2cf-4d71-9723-9e2e4440882f}, ! Name of Object 3
  {3c0b168d-d30b-4a96-8cfd-68f328776980}, ! Name of Object 4
  {00a097fd-7d2b-4794-bbbd-b883c4ecf3cd}; ! Name of Object 5

