
OS:Version,
  {218410b8-e74c-4018-888e-0851a2312e90}, ! Handle
  0.9.3;                                  ! Version Identifier

OS:Material,
  {661c9209-9745-4079-b75c-20684ba05a14}, ! Handle
  MAT-CC05 8 HW CONCRETE,                 ! Name
  Rough,                                  ! Roughness
  0.20321,                                ! Thickness {m}
  1.311,                                  ! Conductivity {W/m-K}
  2240,                                   ! Density {kg/m3}
  836.8,                                  ! Specific Heat {J/kg-K}
  0.9,                                    ! Thermal Absorptance
  0.7,                                    ! Solar Absorptance
  0.7;                                    ! Visible Absorptance

OS:ComponentCost:LineItem,
  {b39e0871-d1f6-49d3-b1a3-3b05dfa49342}, ! Handle
  90.1-2001 Res B21 Ext Slab Unheated - 8in Slab without Carpet, ! Name
  ,                                       ! Type
  Construction,                           ! Line Item Type
  90.1-2001 Res B21 Ext Slab Unheated - 8in Slab without Carpet, ! Item Name
  ,                                       ! Object End Use Key
  ,                                       ! Quantity {dimensionless}
  45.52,                                  ! Material Cost {$}
  CostPerArea;                            ! Material Cost Units

OS:Construction,
  {652ee642-7157-4538-89ff-04281b45315e}, ! Handle
  90.1-2001 Res B21 Ext Slab Unheated - 8in Slab without Carpet, ! Name
  ,                                       ! Surface Rendering Name
  {661c9209-9745-4079-b75c-20684ba05a14}; ! Layer 1

