
OS:Version,
  {bc42e5fa-5106-4fc6-a5b4-da64aa876d09}, ! Handle
  0.9.3;                                  ! Version Identifier

OS:Construction,
  {276461a9-2ca7-4364-a1f4-ebc8960a383e}, ! Handle
  90.1-2001 Res B21 Ext Slab Unheated - 8in Slab without Carpet, ! Name
  ,                                       ! Surface Rendering Name
  {8e181ddd-3169-40b6-bcdd-9a2a1588f0c8}; ! Layer 1

OS:Material,
  {8e181ddd-3169-40b6-bcdd-9a2a1588f0c8}, ! Handle
  MAT-CC05 8 HW CONCRETE,                 ! Name
  Rough,                                  ! Roughness
  0.20321,                                ! Thickness {m}
  1.311,                                  ! Conductivity {W/m-K}
  2240,                                   ! Density {kg/m3}
  836.8,                                  ! Specific Heat {J/kg-K}
  0.9,                                    ! Thermal Absorptance
  0.7,                                    ! Solar Absorptance
  0.7;                                    ! Visible Absorptance

OS:ComponentCost:LineItem,
  {27746d8e-0d29-4bdb-b050-ddd6e2f6a2c0}, ! Handle
  90.1-2001 Res B21 Ext Slab Unheated - 8in Slab without Carpet, ! Name
  ,                                       ! Type
  Construction,                           ! Line Item Type
  90.1-2001 Res B21 Ext Slab Unheated - 8in Slab without Carpet, ! Item Name
  ,                                       ! Object End Use Key
  ,                                       ! Quantity {dimensionless}
  45.52,                                  ! Material Cost {$}
  CostPerArea;                            ! Material Cost Units

OS:ComponentData,
  {fcba42ac-4f0e-4501-9892-48698ff72c5c}, ! Handle
  Component Data 1,                       ! Name
  {55a5ba7c-6178-4316-886c-8c5552ba89e2}, ! UUID
  {33cba84a-1693-4426-afa1-1b253f4066a6}, ! Version UUID
  1363981583,                             ! Creation Timestamp
  1363981583,                             ! Version Timestamp
  {276461a9-2ca7-4364-a1f4-ebc8960a383e}, ! Name of Object 1
  {8e181ddd-3169-40b6-bcdd-9a2a1588f0c8}, ! Name of Object 2
  {27746d8e-0d29-4bdb-b050-ddd6e2f6a2c0}; ! Name of Object 3

