
OS:Version,
  {8acff375-9c54-43f6-a4a8-ce13488f07fb}, ! Handle
  0.9.3;                                  ! Version Identifier

OS:Construction,
  {5f79f523-100b-40f7-97fd-8986dd3e517f}, ! Handle
  Title 24-2008 Nonres 2 Window Fixed,    ! Name
  ,                                       ! Surface Rendering Name
  {e107faa1-42fb-4f6c-b772-23bdb2de51f7}; ! Layer 1

OS:WindowMaterial:Glazing,
  {e107faa1-42fb-4f6c-b772-23bdb2de51f7}, ! Handle
  Theoretical Glass [673],                ! Name
  SpectralAverage,                        ! Optical Data Type
  ,                                       ! Window Glass Spectral Data Set Name
  0.003,                                  ! Thickness {m}
  0.304934,                               ! Solar Transmittance at Normal Incidence
  0.645066,                               ! Front Side Solar Reflectance at Normal Incidence
  0.645066,                               ! Back Side Solar Reflectance at Normal Incidence
  0.310844,                               ! Visible Transmittance at Normal Incidence
  0.639156,                               ! Front Side Visible Reflectance at Normal Incidence
  0.639156,                               ! Back Side Visible Reflectance at Normal Incidence
  0,                                      ! Infrared Transmittance at Normal Incidence
  0.9,                                    ! Front Side Infrared Hemispherical Emissivity
  0.9,                                    ! Back Side Infrared Hemispherical Emissivity
  0.0139798;                              ! Conductivity {W/m-K}

OS:ComponentCost:LineItem,
  {54d90d72-a259-418e-a1bc-ee5b0cc643fb}, ! Handle
  Title 24-2008 Nonres 2 Window Fixed,    ! Name
  ,                                       ! Type
  Construction,                           ! Line Item Type
  Title 24-2008 Nonres 2 Window Fixed,    ! Item Name
  ,                                       ! Object End Use Key
  ,                                       ! Quantity {dimensionless}
  590.138,                                ! Material Cost {$}
  CostPerArea;                            ! Material Cost Units

OS:ComponentData,
  {e7cb326e-68fa-4093-a7d4-6ae03c873e8a}, ! Handle
  Component Data 1,                       ! Name
  {9fb68f69-b6d4-48c5-a62a-8a085f4357c4}, ! UUID
  {6d467bf8-310e-466f-9962-34f378c18168}, ! Version UUID
  1363981997,                             ! Creation Timestamp
  1363981997,                             ! Version Timestamp
  {5f79f523-100b-40f7-97fd-8986dd3e517f}, ! Name of Object 1
  {e107faa1-42fb-4f6c-b772-23bdb2de51f7}, ! Name of Object 2
  {54d90d72-a259-418e-a1bc-ee5b0cc643fb}; ! Name of Object 3

