
OS:Version,
  {be164e1d-54fd-4372-8f1f-0aeb54a97655}, ! Handle
  0.9.3;                                  ! Version Identifier

OS:WindowMaterial:Glazing,
  {55ac100e-0b03-42c2-8fd1-a5609d1a2851}, ! Handle
  Theoretical Glass [673],                ! Name
  SpectralAverage,                        ! Optical Data Type
  ,                                       ! Window Glass Spectral Data Set Name
  0.003,                                  ! Thickness {m}
  0.304934,                               ! Solar Transmittance at Normal Incidence
  0.645066,                               ! Front Side Solar Reflectance at Normal Incidence
  0.645066,                               ! Back Side Solar Reflectance at Normal Incidence
  0.310844,                               ! Visible Transmittance at Normal Incidence
  0.639156,                               ! Front Side Visible Reflectance at Normal Incidence
  0.639156,                               ! Back Side Visible Reflectance at Normal Incidence
  0,                                      ! Infrared Transmittance at Normal Incidence
  0.9,                                    ! Front Side Infrared Hemispherical Emissivity
  0.9,                                    ! Back Side Infrared Hemispherical Emissivity
  0.0139798;                              ! Conductivity {W/m-K}

OS:Construction,
  {89adb6df-6603-40e6-9aec-4649dcdab026}, ! Handle
  Title 24-2008 Nonres 2 Window Fixed,    ! Name
  ,                                       ! Surface Rendering Name
  {55ac100e-0b03-42c2-8fd1-a5609d1a2851}; ! Layer 1

OS:ComponentCost:LineItem,
  {fbf96d2d-2344-437d-be54-6c871b40cdc1}, ! Handle
  Title 24-2008 Nonres 2 Window Fixed,    ! Name
  ,                                       ! Type
  Construction,                           ! Line Item Type
  Title 24-2008 Nonres 2 Window Fixed,    ! Item Name
  ,                                       ! Object End Use Key
  ,                                       ! Quantity {dimensionless}
  590.138,                                ! Material Cost {$}
  CostPerArea;                            ! Material Cost Units

