
OS:Version,
  {f19b9cd2-8985-4c3d-a483-5d1b700abcac}, ! Handle
  0.9.3;                                  ! Version Identifier

OS:Construction,
  {d0244b1e-51aa-40ee-a841-7944a55b14db}, ! Handle
  90.1-1999 Res B6 Roof Attic and Other,  ! Name
  ,                                       ! Surface Rendering Name
  {715acf50-9779-41de-bc75-0ea5c81a9ce8}, ! Layer 1
  {2f85570f-9680-4ec2-8e2c-6cd054226450}, ! Layer 2
  {7891e7d4-6380-458d-832b-2d3307440fac}, ! Layer 3
  {32d76d5e-84ff-4597-a5a4-a3240272bc42}; ! Layer 4

OS:Material,
  {715acf50-9779-41de-bc75-0ea5c81a9ce8}, ! Handle
  Wood Shingles,                          ! Name
  VeryRough,                              ! Roughness
  0.0178,                                 ! Thickness {m}
  0.115,                                  ! Conductivity {W/m-K}
  513,                                    ! Density {kg/m3}
  1255,                                   ! Specific Heat {J/kg-K}
  0.9,                                    ! Thermal Absorptance
  0.78,                                   ! Solar Absorptance
  0.78;                                   ! Visible Absorptance

OS:Material,
  {2f85570f-9680-4ec2-8e2c-6cd054226450}, ! Handle
  1IN Wood Decking,                       ! Name
  MediumSmooth,                           ! Roughness
  0.0254,                                 ! Thickness {m}
  0.1211,                                 ! Conductivity {W/m-K}
  593,                                    ! Density {kg/m3}
  2510,                                   ! Specific Heat {J/kg-K}
  0.9,                                    ! Thermal Absorptance
  0.78,                                   ! Solar Absorptance
  0.78;                                   ! Visible Absorptance

OS:Material,
  {7891e7d4-6380-458d-832b-2d3307440fac}, ! Handle
  Roof Insulation [2],                    ! Name
  MediumRough,                            ! Roughness
  0.221604,                               ! Thickness {m}
  0.049,                                  ! Conductivity {W/m-K}
  265,                                    ! Density {kg/m3}
  836.8,                                  ! Specific Heat {J/kg-K}
  0.9,                                    ! Thermal Absorptance
  0.7,                                    ! Solar Absorptance
  0.7;                                    ! Visible Absorptance

OS:Material,
  {32d76d5e-84ff-4597-a5a4-a3240272bc42}, ! Handle
  1/2IN Gypsum,                           ! Name
  Smooth,                                 ! Roughness
  0.01271,                                ! Thickness {m}
  0.16,                                   ! Conductivity {W/m-K}
  784.9,                                  ! Density {kg/m3}
  830,                                    ! Specific Heat {J/kg-K}
  0.9,                                    ! Thermal Absorptance
  0.92,                                   ! Solar Absorptance
  0.92;                                   ! Visible Absorptance

OS:ComponentCost:LineItem,
  {64518c9c-48fd-4cda-8651-f6abe451695b}, ! Handle
  90.1-1999 Res B6 Roof Attic and Other,  ! Name
  ,                                       ! Type
  Construction,                           ! Line Item Type
  90.1-1999 Res B6 Roof Attic and Other,  ! Item Name
  ,                                       ! Object End Use Key
  ,                                       ! Quantity {dimensionless}
  33.39,                                  ! Material Cost {$}
  CostPerArea;                            ! Material Cost Units

