
! 
OS:Version,
  {9c37d538-db0d-4a47-9850-5bede7e76bd5}, !- Handle
  1.13.0;                                 !- Version Identifier


! {"nombreProductoCorto": "CLIMALIT PLUS con PLANITHERM PLANISTAR ONE F2 44.1 (16 argon90%) 44.2", "codigoEAN": "", "handle": "791c6f33-b24d-4b3c-9897-29a0986411d9", "g": 0.36, "tV": 0.7, "u": 1.0, "nombreProducto": "CLIMALIT PLUS con PLANITHERM PLANISTAR ONE F2 44.1 (16 argon90%) 44.2\nU:1.0 W/m2K - g:0.36 - Tv: 0.70"}
OS:WindowMaterial:SimpleGlazingSystem,
  {791c6f33-b24d-4b3c-9897-29a0986411d9}, !- Handle
  CLIMALIT PLUS con PLANITHERM PLANISTAR ONE F2 44.1 (16 argon90%) 44.2, !- Name
  1.0,                                    !- U-Factor {W/m2-K}
  0.36,                                    !- Solar Heat Gain Coefficient
  0.7;                                    !- Visible Transmittance     
  
  
OS:Construction,
  {3984a1f8-0219-4aa6-9dbf-572188ca6eef}, !- Handle
  CLIMALIT PLUS con PLANITHERM PLANISTAR ONE F2 44.1 (16 argon90%) 44.2,                         !- Name
  ,                                       !- Surface Rendering Name
  {791c6f33-b24d-4b3c-9897-29a0986411d9}; !- Layer 1  

