
OS:Version,
  {70e462cd-a5c7-427b-94dd-da765b4052ed}, ! Handle
  0.9.3;                                  ! Version Identifier

OS:Construction,
  {4e5c1960-9fd8-4a2e-81a7-957f9d4f97fe}, ! Handle
  90.1-2004 Res 7A Window Fixed,          ! Name
  ,                                       ! Surface Rendering Name
  {fd728334-b9d8-4796-a889-935fe43720a3}; ! Layer 1

OS:WindowMaterial:Glazing,
  {fd728334-b9d8-4796-a889-935fe43720a3}, ! Handle
  Theoretical Glass [152],                ! Name
  SpectralAverage,                        ! Optical Data Type
  ,                                       ! Window Glass Spectral Data Set Name
  0.003,                                  ! Thickness {m}
  0.633525,                               ! Solar Transmittance at Normal Incidence
  0.316475,                               ! Front Side Solar Reflectance at Normal Incidence
  0.316475,                               ! Back Side Solar Reflectance at Normal Incidence
  0.639644,                               ! Visible Transmittance at Normal Incidence
  0.310356,                               ! Front Side Visible Reflectance at Normal Incidence
  0.310356,                               ! Back Side Visible Reflectance at Normal Incidence
  0,                                      ! Infrared Transmittance at Normal Incidence
  0.9,                                    ! Front Side Infrared Hemispherical Emissivity
  0.9,                                    ! Back Side Infrared Hemispherical Emissivity
  0.0134755;                              ! Conductivity {W/m-K}

OS:ComponentCost:LineItem,
  {fa934131-9736-476d-a342-b2def67e1406}, ! Handle
  90.1-2004 Res 7A Window Fixed,          ! Name
  ,                                       ! Type
  Construction,                           ! Line Item Type
  90.1-2004 Res 7A Window Fixed,          ! Item Name
  ,                                       ! Object End Use Key
  ,                                       ! Quantity {dimensionless}
  531.711,                                ! Material Cost {$}
  CostPerArea;                            ! Material Cost Units

