
OS:Version,
  {3d315da1-1201-4e6e-b3f2-903b35db3183}, ! Handle
  0.9.3;                                  ! Version Identifier

OS:Construction,
  {3ddc2401-2ee7-4f90-96f1-40ee183a223b}, ! Handle
  90.1-2004 Res 7A Window Fixed,          ! Name
  ,                                       ! Surface Rendering Name
  {5ac6b99a-91d7-4ac9-8591-fe1a87c462ed}; ! Layer 1

OS:WindowMaterial:Glazing,
  {5ac6b99a-91d7-4ac9-8591-fe1a87c462ed}, ! Handle
  Theoretical Glass [152],                ! Name
  SpectralAverage,                        ! Optical Data Type
  ,                                       ! Window Glass Spectral Data Set Name
  0.003,                                  ! Thickness {m}
  0.633525,                               ! Solar Transmittance at Normal Incidence
  0.316475,                               ! Front Side Solar Reflectance at Normal Incidence
  0.316475,                               ! Back Side Solar Reflectance at Normal Incidence
  0.639644,                               ! Visible Transmittance at Normal Incidence
  0.310356,                               ! Front Side Visible Reflectance at Normal Incidence
  0.310356,                               ! Back Side Visible Reflectance at Normal Incidence
  0,                                      ! Infrared Transmittance at Normal Incidence
  0.9,                                    ! Front Side Infrared Hemispherical Emissivity
  0.9,                                    ! Back Side Infrared Hemispherical Emissivity
  0.0134755;                              ! Conductivity {W/m-K}

OS:ComponentCost:LineItem,
  {fd00799f-02ae-4469-a6fb-eb716bedee3a}, ! Handle
  90.1-2004 Res 7A Window Fixed,          ! Name
  ,                                       ! Type
  Construction,                           ! Line Item Type
  90.1-2004 Res 7A Window Fixed,          ! Item Name
  ,                                       ! Object End Use Key
  ,                                       ! Quantity {dimensionless}
  531.711,                                ! Material Cost {$}
  CostPerArea;                            ! Material Cost Units

OS:ComponentData,
  {50e5f2b8-77f2-4696-8a53-eb61c8638ac7}, ! Handle
  Component Data 1,                       ! Name
  {2372f5e6-2825-4d67-8af8-3fc45c052007}, ! UUID
  {8996c6e1-9a70-4ccc-a74f-41f5ee46a135}, ! Version UUID
  1363981765,                             ! Creation Timestamp
  1363981765,                             ! Version Timestamp
  {3ddc2401-2ee7-4f90-96f1-40ee183a223b}, ! Name of Object 1
  {5ac6b99a-91d7-4ac9-8591-fe1a87c462ed}, ! Name of Object 2
  {fd00799f-02ae-4469-a6fb-eb716bedee3a}; ! Name of Object 3

