
OS:Version,
  {98ee928a-02bf-4daa-9029-5ef7661ac564}, ! Handle
  0.9.3;                                  ! Version Identifier

OS:Construction,
  {6b448a57-1f4e-4e55-969f-ecc76bda5522}, ! Handle
  90.1-1999 Nonres B5 Roof IEAD,          ! Name
  ,                                       ! Surface Rendering Name
  {cb4a65dd-e4b0-480b-ab1f-e2a02295d43b}, ! Layer 1
  {a443c7d8-a464-46f5-8793-ce42bb874736}, ! Layer 2
  {3f7608c8-c77c-40e9-b4e2-06c4ff43674b}; ! Layer 3

OS:Material,
  {cb4a65dd-e4b0-480b-ab1f-e2a02295d43b}, ! Handle
  Roof Membrane,                          ! Name
  VeryRough,                              ! Roughness
  0.0095,                                 ! Thickness {m}
  0.16,                                   ! Conductivity {W/m-K}
  1121.29,                                ! Density {kg/m3}
  1460,                                   ! Specific Heat {J/kg-K}
  0.9,                                    ! Thermal Absorptance
  0.7,                                    ! Solar Absorptance
  0.7;                                    ! Visible Absorptance

OS:Material,
  {a443c7d8-a464-46f5-8793-ce42bb874736}, ! Handle
  Roof Insulation,                        ! Name
  MediumRough,                            ! Roughness
  0.124958,                               ! Thickness {m}
  0.049,                                  ! Conductivity {W/m-K}
  265,                                    ! Density {kg/m3}
  836.8,                                  ! Specific Heat {J/kg-K}
  0.9,                                    ! Thermal Absorptance
  0.7,                                    ! Solar Absorptance
  0.7;                                    ! Visible Absorptance

OS:Material,
  {3f7608c8-c77c-40e9-b4e2-06c4ff43674b}, ! Handle
  Metal Decking,                          ! Name
  MediumSmooth,                           ! Roughness
  0.001524,                               ! Thickness {m}
  45.006,                                 ! Conductivity {W/m-K}
  7680,                                   ! Density {kg/m3}
  418.4,                                  ! Specific Heat {J/kg-K}
  0.9,                                    ! Thermal Absorptance
  0.7,                                    ! Solar Absorptance
  0.3;                                    ! Visible Absorptance

OS:ComponentCost:LineItem,
  {a70ddadc-06d7-49d4-8ed5-cfaf146343d7}, ! Handle
  90.1-1999 Nonres B5 Roof IEAD,          ! Name
  ,                                       ! Type
  Construction,                           ! Line Item Type
  90.1-1999 Nonres B5 Roof IEAD,          ! Item Name
  ,                                       ! Object End Use Key
  ,                                       ! Quantity {dimensionless}
  49.208,                                 ! Material Cost {$}
  CostPerArea;                            ! Material Cost Units

