
OS:Version,
  {d9ca563c-6603-444e-9f95-add475b3ed27}, ! Handle
  0.9.3;                                  ! Version Identifier

OS:Construction,
  {7ce8ae89-9434-45b2-97ba-940be2f0d7b5}, ! Handle
  AEDG K12 Nonres 1A Attic Floor,         ! Name
  ,                                       ! Surface Rendering Name
  {6de4ed39-d2d6-4d78-a0ca-7e1ac6df5c35}, ! Layer 1
  {5ef9837a-2587-4210-8173-78a6b0f0ddc1}, ! Layer 2
  {bb7a7937-664c-469a-bd3d-a8b38ce6594b}; ! Layer 3

OS:Material,
  {6de4ed39-d2d6-4d78-a0ca-7e1ac6df5c35}, ! Handle
  1/2IN Gypsum Top,                       ! Name
  Smooth,                                 ! Roughness
  0.01271,                                ! Thickness {m}
  0.16,                                   ! Conductivity {W/m-K}
  784.9,                                  ! Density {kg/m3}
  830,                                    ! Specific Heat {J/kg-K}
  0.9,                                    ! Thermal Absorptance
  0.92,                                   ! Solar Absorptance
  0.92;                                   ! Visible Absorptance

OS:Material,
  {5ef9837a-2587-4210-8173-78a6b0f0ddc1}, ! Handle
  AtticFloor Insulation,                  ! Name
  MediumRough,                            ! Roughness
  0.237853,                               ! Thickness {m}
  0.049,                                  ! Conductivity {W/m-K}
  265,                                    ! Density {kg/m3}
  836.8,                                  ! Specific Heat {J/kg-K}
  0.9,                                    ! Thermal Absorptance
  0.7,                                    ! Solar Absorptance
  0.7;                                    ! Visible Absorptance

OS:Material,
  {bb7a7937-664c-469a-bd3d-a8b38ce6594b}, ! Handle
  1/2IN Gypsum Bottom,                    ! Name
  Smooth,                                 ! Roughness
  0.01271,                                ! Thickness {m}
  0.16,                                   ! Conductivity {W/m-K}
  784.9,                                  ! Density {kg/m3}
  830,                                    ! Specific Heat {J/kg-K}
  0.9,                                    ! Thermal Absorptance
  0.92,                                   ! Solar Absorptance
  0.92;                                   ! Visible Absorptance

OS:ComponentCost:LineItem,
  {9651b94a-250e-4f51-9ab9-e517c147890f}, ! Handle
  AEDG K12 Nonres 1A Attic Floor,         ! Name
  ,                                       ! Type
  Construction,                           ! Line Item Type
  AEDG K12 Nonres 1A Attic Floor,         ! Item Name
  ,                                       ! Object End Use Key
  ,                                       ! Quantity {dimensionless}
  33.596,                                 ! Material Cost {$}
  CostPerArea;                            ! Material Cost Units

