
OS:Version,
  {f85c477f-7913-46e6-9810-6853fd50dee9}, ! Handle
  0.9.3;                                  ! Version Identifier

OS:Construction,
  {33899bb7-515d-48a9-b84c-c12b253dffe4}, ! Handle
  Title 24-2008 Nonres 9 Exposed Floor Mass, ! Name
  ,                                       ! Surface Rendering Name
  {7bdab4bf-1bf6-4c67-bb72-96210d0deac7}, ! Layer 1
  {7885dced-9b59-4643-bac6-f4c9caf042a3}, ! Layer 2
  {d0ff9900-f37f-4b69-beb6-28671b810bbd}; ! Layer 3

OS:Material,
  {7bdab4bf-1bf6-4c67-bb72-96210d0deac7}, ! Handle
  Floor Insulation [56],                  ! Name
  MediumRough,                            ! Roughness
  0.0018265,                              ! Thickness {m}
  0.045,                                  ! Conductivity {W/m-K}
  265,                                    ! Density {kg/m3}
  836.8,                                  ! Specific Heat {J/kg-K}
  0.9,                                    ! Thermal Absorptance
  0.7,                                    ! Solar Absorptance
  0.7;                                    ! Visible Absorptance

OS:Material,
  {7885dced-9b59-4643-bac6-f4c9caf042a3}, ! Handle
  MAT-CC05 8 HW CONCRETE,                 ! Name
  Rough,                                  ! Roughness
  0.20321,                                ! Thickness {m}
  1.311,                                  ! Conductivity {W/m-K}
  2240,                                   ! Density {kg/m3}
  836.8,                                  ! Specific Heat {J/kg-K}
  0.9,                                    ! Thermal Absorptance
  0.7,                                    ! Solar Absorptance
  0.7;                                    ! Visible Absorptance

OS:Material:NoMass,
  {d0ff9900-f37f-4b69-beb6-28671b810bbd}, ! Handle
  CP02 CARPET PAD,                        ! Name
  VeryRough,                              ! Roughness
  0.21648,                                ! Thermal Resistance {m2-K/W}
  0.9,                                    ! Thermal Absorptance
  0.7,                                    ! Solar Absorptance
  0.8;                                    ! Visible Absorptance

OS:ComponentCost:LineItem,
  {dfd1e6ed-8b92-409f-98bd-d6ab0d8de08b}, ! Handle
  Title 24-2008 Nonres 9 Exposed Floor Mass, ! Name
  ,                                       ! Type
  Construction,                           ! Line Item Type
  Title 24-2008 Nonres 9 Exposed Floor Mass, ! Item Name
  ,                                       ! Object End Use Key
  ,                                       ! Quantity {dimensionless}
  40.432,                                 ! Material Cost {$}
  CostPerArea;                            ! Material Cost Units

OS:ComponentData,
  {ab48552f-f8d4-4a81-a5a8-5e82eb63ff32}, ! Handle
  Component Data 1,                       ! Name
  {f790d670-7c6c-4196-bdc0-1bfdbfff74f9}, ! UUID
  {acf0f616-0752-4049-8621-004c799502b1}, ! Version UUID
  1363982055,                             ! Creation Timestamp
  1363982055,                             ! Version Timestamp
  {33899bb7-515d-48a9-b84c-c12b253dffe4}, ! Name of Object 1
  {7bdab4bf-1bf6-4c67-bb72-96210d0deac7}, ! Name of Object 2
  {7885dced-9b59-4643-bac6-f4c9caf042a3}, ! Name of Object 3
  {d0ff9900-f37f-4b69-beb6-28671b810bbd}, ! Name of Object 4
  {dfd1e6ed-8b92-409f-98bd-d6ab0d8de08b}; ! Name of Object 5

