
OS:Version,
  {a751b5ab-a8b3-40b3-a66e-4d2f08824890}, ! Handle
  0.9.3;                                  ! Version Identifier

OS:Construction,
  {d7d2747c-9c39-45b0-a874-63c449b87c47}, ! Handle
  Title 24-2008 Nonres 1 Window Fixed,    ! Name
  ,                                       ! Surface Rendering Name
  {2692bcd2-28f2-4eb5-959b-9b4a2c3fc82d}; ! Layer 1

OS:WindowMaterial:Glazing,
  {2692bcd2-28f2-4eb5-959b-9b4a2c3fc82d}, ! Handle
  Theoretical Glass [663],                ! Name
  SpectralAverage,                        ! Optical Data Type
  ,                                       ! Window Glass Spectral Data Set Name
  0.003,                                  ! Thickness {m}
  0.423708,                               ! Solar Transmittance at Normal Incidence
  0.526292,                               ! Front Side Solar Reflectance at Normal Incidence
  0.526292,                               ! Back Side Solar Reflectance at Normal Incidence
  0.429741,                               ! Visible Transmittance at Normal Incidence
  0.520259,                               ! Front Side Visible Reflectance at Normal Incidence
  0.520259,                               ! Back Side Visible Reflectance at Normal Incidence
  0,                                      ! Infrared Transmittance at Normal Incidence
  0.9,                                    ! Front Side Infrared Hemispherical Emissivity
  0.9,                                    ! Back Side Infrared Hemispherical Emissivity
  0.0139798;                              ! Conductivity {W/m-K}

OS:ComponentCost:LineItem,
  {c4020811-c41d-44f0-b33f-b93f02583774}, ! Handle
  Title 24-2008 Nonres 1 Window Fixed,    ! Name
  ,                                       ! Type
  Construction,                           ! Line Item Type
  Title 24-2008 Nonres 1 Window Fixed,    ! Item Name
  ,                                       ! Object End Use Key
  ,                                       ! Quantity {dimensionless}
  583.682,                                ! Material Cost {$}
  CostPerArea;                            ! Material Cost Units

OS:ComponentData,
  {8a0dd957-b961-406a-ab83-77b07497077b}, ! Handle
  Component Data 1,                       ! Name
  {d6bbd476-cd27-4abe-baf9-2b1edc5fec6e}, ! UUID
  {b2909d16-66d9-40ac-bb03-0a3f289f1378}, ! Version UUID
  1363981987,                             ! Creation Timestamp
  1363981987,                             ! Version Timestamp
  {d7d2747c-9c39-45b0-a874-63c449b87c47}, ! Name of Object 1
  {2692bcd2-28f2-4eb5-959b-9b4a2c3fc82d}, ! Name of Object 2
  {c4020811-c41d-44f0-b33f-b93f02583774}; ! Name of Object 3

