
OS:Version,
  {befe9ffb-8840-463e-8cbc-51d2e304c3a0}, ! Handle
  0.9.3;                                  ! Version Identifier

OS:Material,
  {065eba43-3007-4a6a-80f1-a16b94899271}, ! Handle
  1/2IN Gypsum,                           ! Name
  Smooth,                                 ! Roughness
  0.01271,                                ! Thickness {m}
  0.16,                                   ! Conductivity {W/m-K}
  784.9,                                  ! Density {kg/m3}
  830,                                    ! Specific Heat {J/kg-K}
  0.9,                                    ! Thermal Absorptance
  0.92,                                   ! Solar Absorptance
  0.92;                                   ! Visible Absorptance

OS:ComponentCost:LineItem,
  {6754da0a-333c-4efd-b488-e9b4bc008d7b}, ! Handle
  189.1-2009 Nonres 3A Ext Wall Wood-Framed and Other, ! Name
  ,                                       ! Type
  Construction,                           ! Line Item Type
  189.1-2009 Nonres 3A Ext Wall Wood-Framed and Other, ! Item Name
  ,                                       ! Object End Use Key
  ,                                       ! Quantity {dimensionless}
  77.743,                                 ! Material Cost {$}
  CostPerArea;                            ! Material Cost Units

OS:Material,
  {c66e74fa-0f9a-4f41-a603-e0a67067ec92}, ! Handle
  Wood Siding,                            ! Name
  MediumSmooth,                           ! Roughness
  0.01,                                   ! Thickness {m}
  0.11,                                   ! Conductivity {W/m-K}
  544.62,                                 ! Density {kg/m3}
  1210,                                   ! Specific Heat {J/kg-K}
  0.9,                                    ! Thermal Absorptance
  0.78,                                   ! Solar Absorptance
  0.78;                                   ! Visible Absorptance

OS:Construction,
  {3eaaa1e2-58e5-4ba7-b6da-1a8b2f3ac953}, ! Handle
  189.1-2009 Nonres 3A Ext Wall Wood-Framed and Other, ! Name
  ,                                       ! Surface Rendering Name
  {c66e74fa-0f9a-4f41-a603-e0a67067ec92}, ! Layer 1
  {2219f72f-92d3-4ad7-acdf-db81aadb79d2}, ! Layer 2
  {065eba43-3007-4a6a-80f1-a16b94899271}; ! Layer 3

OS:Material,
  {2219f72f-92d3-4ad7-acdf-db81aadb79d2}, ! Handle
  Wall Insulation [34],                   ! Name
  MediumRough,                            ! Roughness
  0.110422,                               ! Thickness {m}
  0.045,                                  ! Conductivity {W/m-K}
  265,                                    ! Density {kg/m3}
  836.8,                                  ! Specific Heat {J/kg-K}
  0.9,                                    ! Thermal Absorptance
  0.7,                                    ! Solar Absorptance
  0.7;                                    ! Visible Absorptance

