
OS:Version,
  {92971ad8-c0cc-4c19-921e-0b6dc32f8c76}, ! Handle
  0.9.3;                                  ! Version Identifier

OS:ComponentCost:LineItem,
  {db7d6700-8b0d-4c2c-9a7d-5c4a4be9b33d}, ! Handle
  189.1-2009 Nonres 1A Skylight without Curb, ! Name
  ,                                       ! Type
  Construction,                           ! Line Item Type
  189.1-2009 Nonres 1A Skylight without Curb, ! Item Name
  ,                                       ! Object End Use Key
  ,                                       ! Quantity {dimensionless}
  572.169,                                ! Material Cost {$}
  CostPerArea;                            ! Material Cost Units

OS:Construction,
  {f97474d9-163e-4870-b653-a858d3d59610}, ! Handle
  189.1-2009 Nonres 1A Skylight without Curb, ! Name
  ,                                       ! Surface Rendering Name
  {2b874362-de2f-4167-95ce-e2c1ffd21a67}; ! Layer 1

OS:WindowMaterial:Glazing,
  {2b874362-de2f-4167-95ce-e2c1ffd21a67}, ! Handle
  Theoretical Glass [196],                ! Name
  SpectralAverage,                        ! Optical Data Type
  ,                                       ! Window Glass Spectral Data Set Name
  0.003,                                  ! Thickness {m}
  0.172982,                               ! Solar Transmittance at Normal Incidence
  0.777018,                               ! Front Side Solar Reflectance at Normal Incidence
  0.777018,                               ! Back Side Solar Reflectance at Normal Incidence
  0.242683,                               ! Visible Transmittance at Normal Incidence
  0.707317,                               ! Front Side Visible Reflectance at Normal Incidence
  0.707317,                               ! Back Side Visible Reflectance at Normal Incidence
  0,                                      ! Infrared Transmittance at Normal Incidence
  0.9,                                    ! Front Side Infrared Hemispherical Emissivity
  0.9,                                    ! Back Side Infrared Hemispherical Emissivity
  0.0207247;                              ! Conductivity {W/m-K}

