
OS:Version,
  {fac271bf-7433-469a-b9ab-d26ce7eedbe3}, ! Handle
  0.9.3;                                  ! Version Identifier

OS:Construction,
  {d2a0bddf-9d06-4472-92e1-e3f5ea227fd2}, ! Handle
  90.1 Windows Window Fixed 2446 Brk-HptMpr-Ins-ClrSue, ! Name
  ,                                       ! Surface Rendering Name
  {669e7afc-ba52-49ca-b256-09bdd8596626}; ! Layer 1

OS:WindowMaterial:Glazing,
  {669e7afc-ba52-49ca-b256-09bdd8596626}, ! Handle
  Theoretical Glass [544],                ! Name
  SpectralAverage,                        ! Optical Data Type
  ,                                       ! Window Glass Spectral Data Set Name
  0.003,                                  ! Thickness {m}
  0.186523,                               ! Solar Transmittance at Normal Incidence
  0.763477,                               ! Front Side Solar Reflectance at Normal Incidence
  0.763477,                               ! Back Side Solar Reflectance at Normal Incidence
  0.301356,                               ! Visible Transmittance at Normal Incidence
  0.648644,                               ! Front Side Visible Reflectance at Normal Incidence
  0.648644,                               ! Back Side Visible Reflectance at Normal Incidence
  0,                                      ! Infrared Transmittance at Normal Incidence
  0.9,                                    ! Front Side Infrared Hemispherical Emissivity
  0.9,                                    ! Back Side Infrared Hemispherical Emissivity
  0.0116204;                              ! Conductivity {W/m-K}

OS:ComponentCost:LineItem,
  {5ffe043c-9734-4efb-a324-fe3e2a1acbbe}, ! Handle
  90.1 Windows Window Fixed 2446 Brk-HptMpr-Ins-ClrSue, ! Name
  ,                                       ! Type
  Construction,                           ! Line Item Type
  90.1 Windows Window Fixed 2446 Brk-HptMpr-Ins-ClrSue, ! Item Name
  ,                                       ! Object End Use Key
  ,                                       ! Quantity {dimensionless}
  0,                                      ! Material Cost {$}
  CostPerArea;                            ! Material Cost Units

