
OS:Version,
  {47b01e1d-d4a7-4530-bcd6-80728fae0b84}, ! Handle
  0.9.3;                                  ! Version Identifier

OS:WindowMaterial:Glazing,
  {19b9d6ce-0aff-4c10-9f2d-ad3e27c78c2a}, ! Handle
  Theoretical Glass [17],                 ! Name
  SpectralAverage,                        ! Optical Data Type
  ,                                       ! Window Glass Spectral Data Set Name
  0.003,                                  ! Thickness {m}
  0.375972,                               ! Solar Transmittance at Normal Incidence
  0.574028,                               ! Front Side Solar Reflectance at Normal Incidence
  0.574028,                               ! Back Side Solar Reflectance at Normal Incidence
  0.41104,                                ! Visible Transmittance at Normal Incidence
  0.53896,                                ! Front Side Visible Reflectance at Normal Incidence
  0.53896,                                ! Back Side Visible Reflectance at Normal Incidence
  0,                                      ! Infrared Transmittance at Normal Incidence
  0.999,                                  ! Front Side Infrared Hemispherical Emissivity
  0.999,                                  ! Back Side Infrared Hemispherical Emissivity
  299.383;                                ! Conductivity {W/m-K}

OS:Construction,
  {ee7728ea-101d-41be-aa6e-4be9008a5470}, ! Handle
  90.1-2001 Nonres B6 Skylight without Curb, ! Name
  ,                                       ! Surface Rendering Name
  {19b9d6ce-0aff-4c10-9f2d-ad3e27c78c2a}; ! Layer 1

OS:ComponentCost:LineItem,
  {20033d86-1c1a-4739-9324-be21175df517}, ! Handle
  90.1-2001 Nonres B6 Skylight without Curb, ! Name
  ,                                       ! Type
  Construction,                           ! Line Item Type
  90.1-2001 Nonres B6 Skylight without Curb, ! Item Name
  ,                                       ! Object End Use Key
  ,                                       ! Quantity {dimensionless}
  486.627,                                ! Material Cost {$}
  CostPerArea;                            ! Material Cost Units

