
OS:Version,
  {158e99c2-f3a3-4b09-a115-bd46504b96ea}, ! Handle
  0.9.3;                                  ! Version Identifier

OS:Construction,
  {f501b0ca-8b4b-4750-a92e-0728c673acd3}, ! Handle
  90.1-2007 Nonres 4B Ext Slab Unheated - 8in Slab without Carpet, ! Name
  ,                                       ! Surface Rendering Name
  {4527056e-09dd-45d1-9314-e89a01fbe53a}; ! Layer 1

OS:Material,
  {4527056e-09dd-45d1-9314-e89a01fbe53a}, ! Handle
  MAT-CC05 8 HW CONCRETE,                 ! Name
  Rough,                                  ! Roughness
  0.20321,                                ! Thickness {m}
  1.311,                                  ! Conductivity {W/m-K}
  2240,                                   ! Density {kg/m3}
  836.8,                                  ! Specific Heat {J/kg-K}
  0.9,                                    ! Thermal Absorptance
  0.7,                                    ! Solar Absorptance
  0.7;                                    ! Visible Absorptance

OS:ComponentCost:LineItem,
  {d2aa0513-a43e-4c53-b169-28f0528e95ee}, ! Handle
  90.1-2007 Nonres 4B Ext Slab Unheated - 8in Slab without Carpet, ! Name
  ,                                       ! Type
  Construction,                           ! Line Item Type
  90.1-2007 Nonres 4B Ext Slab Unheated - 8in Slab without Carpet, ! Item Name
  ,                                       ! Object End Use Key
  ,                                       ! Quantity {dimensionless}
  45.52,                                  ! Material Cost {$}
  CostPerArea;                            ! Material Cost Units

OS:ComponentData,
  {1be3f296-a0a5-41c0-9bea-e7155573f34c}, ! Handle
  Component Data 1,                       ! Name
  {c4247f0a-5ea3-4696-b458-1781b0f68621}, ! UUID
  {25407009-8b31-4c9b-9c41-1e3de64cf8e3}, ! Version UUID
  1363981802,                             ! Creation Timestamp
  1363981802,                             ! Version Timestamp
  {f501b0ca-8b4b-4750-a92e-0728c673acd3}, ! Name of Object 1
  {4527056e-09dd-45d1-9314-e89a01fbe53a}, ! Name of Object 2
  {d2aa0513-a43e-4c53-b169-28f0528e95ee}; ! Name of Object 3

