
OS:Version,
  {e973e63a-3c4d-43fd-b229-48b53b4b5233}, ! Handle
  0.9.3;                                  ! Version Identifier

OS:Material,
  {888b610c-e9e9-4795-8f84-61eea95feeb5}, ! Handle
  MAT-CC05 8 HW CONCRETE,                 ! Name
  Rough,                                  ! Roughness
  0.20321,                                ! Thickness {m}
  1.311,                                  ! Conductivity {W/m-K}
  2240,                                   ! Density {kg/m3}
  836.8,                                  ! Specific Heat {J/kg-K}
  0.9,                                    ! Thermal Absorptance
  0.7,                                    ! Solar Absorptance
  0.7;                                    ! Visible Absorptance

OS:Construction,
  {b2912a60-1e68-4ce4-bcf5-7aa9f98f2fc4}, ! Handle
  90.1-2007 Nonres 4B Ext Slab Unheated - 8in Slab without Carpet, ! Name
  ,                                       ! Surface Rendering Name
  {888b610c-e9e9-4795-8f84-61eea95feeb5}; ! Layer 1

OS:ComponentCost:LineItem,
  {d02ed66e-b4b1-44e2-a2a8-9131a1be895c}, ! Handle
  90.1-2007 Nonres 4B Ext Slab Unheated - 8in Slab without Carpet, ! Name
  ,                                       ! Type
  Construction,                           ! Line Item Type
  90.1-2007 Nonres 4B Ext Slab Unheated - 8in Slab without Carpet, ! Item Name
  ,                                       ! Object End Use Key
  ,                                       ! Quantity {dimensionless}
  45.52,                                  ! Material Cost {$}
  CostPerArea;                            ! Material Cost Units

