
OS:Version,
  {98081ee9-eb60-447d-9433-27aad68e72fb}, ! Handle
  0.9.3;                                  ! Version Identifier

OS:Material,
  {f187983d-209c-4865-a18b-31d8e3d99b76}, ! Handle
  Floor Insulation [5],                   ! Name
  MediumRough,                            ! Roughness
  0.111151,                               ! Thickness {m}
  0.045,                                  ! Conductivity {W/m-K}
  265,                                    ! Density {kg/m3}
  836.8,                                  ! Specific Heat {J/kg-K}
  0.9,                                    ! Thermal Absorptance
  0.7,                                    ! Solar Absorptance
  0.7;                                    ! Visible Absorptance

OS:Construction,
  {0c9041d7-bbe7-4259-874b-618871112ebc}, ! Handle
  90.1-2007 Res 6B Exposed Floor Mass,    ! Name
  ,                                       ! Surface Rendering Name
  {f187983d-209c-4865-a18b-31d8e3d99b76}, ! Layer 1
  {e62f159d-4977-46ab-9f03-817e3a8b7c74}, ! Layer 2
  {9acdadbb-6f50-4821-a59a-f5205d575cd8}; ! Layer 3

OS:Material,
  {e62f159d-4977-46ab-9f03-817e3a8b7c74}, ! Handle
  MAT-CC05 8 HW CONCRETE,                 ! Name
  Rough,                                  ! Roughness
  0.20321,                                ! Thickness {m}
  1.311,                                  ! Conductivity {W/m-K}
  2240,                                   ! Density {kg/m3}
  836.8,                                  ! Specific Heat {J/kg-K}
  0.9,                                    ! Thermal Absorptance
  0.7,                                    ! Solar Absorptance
  0.7;                                    ! Visible Absorptance

OS:Material:NoMass,
  {9acdadbb-6f50-4821-a59a-f5205d575cd8}, ! Handle
  CP02 CARPET PAD,                        ! Name
  VeryRough,                              ! Roughness
  0.21648,                                ! Thermal Resistance {m2-K/W}
  0.9,                                    ! Thermal Absorptance
  0.7,                                    ! Solar Absorptance
  0.8;                                    ! Visible Absorptance

OS:ComponentCost:LineItem,
  {54879b35-5b95-4d3c-a5af-68103d457f31}, ! Handle
  90.1-2007 Res 6B Exposed Floor Mass,    ! Name
  ,                                       ! Type
  Construction,                           ! Line Item Type
  90.1-2007 Res 6B Exposed Floor Mass,    ! Item Name
  ,                                       ! Object End Use Key
  ,                                       ! Quantity {dimensionless}
  56.262,                                 ! Material Cost {$}
  CostPerArea;                            ! Material Cost Units

