
OS:Version,
  {9af03c83-dfc1-447b-abdb-5331c29ab9ff}, ! Handle
  0.9.3;                                  ! Version Identifier

OS:Material,
  {758dcfdc-f514-4882-a570-43fabbeb774f}, ! Handle
  Roof Insulation [23],                   ! Name
  MediumRough,                            ! Roughness
  0.375211,                               ! Thickness {m}
  0.049,                                  ! Conductivity {W/m-K}
  265,                                    ! Density {kg/m3}
  836.8,                                  ! Specific Heat {J/kg-K}
  0.9,                                    ! Thermal Absorptance
  0.7,                                    ! Solar Absorptance
  0.7;                                    ! Visible Absorptance

OS:Material,
  {21b1a660-9a25-43f6-a68d-cdb1c5480a81}, ! Handle
  1/2IN Gypsum,                           ! Name
  Smooth,                                 ! Roughness
  0.01271,                                ! Thickness {m}
  0.16,                                   ! Conductivity {W/m-K}
  784.9,                                  ! Density {kg/m3}
  830,                                    ! Specific Heat {J/kg-K}
  0.9,                                    ! Thermal Absorptance
  0.92,                                   ! Solar Absorptance
  0.92;                                   ! Visible Absorptance

OS:Material,
  {8c0ca45b-4ac5-4e34-9013-0c1b347decbd}, ! Handle
  Wood Shingles,                          ! Name
  VeryRough,                              ! Roughness
  0.0178,                                 ! Thickness {m}
  0.115,                                  ! Conductivity {W/m-K}
  513,                                    ! Density {kg/m3}
  1255,                                   ! Specific Heat {J/kg-K}
  0.9,                                    ! Thermal Absorptance
  0.78,                                   ! Solar Absorptance
  0.78;                                   ! Visible Absorptance

OS:Construction,
  {471b233d-57ec-4351-90d4-84695f9501be}, ! Handle
  189.1-2009 Nonres 3A Roof Attic and Other, ! Name
  ,                                       ! Surface Rendering Name
  {8c0ca45b-4ac5-4e34-9013-0c1b347decbd}, ! Layer 1
  {abe408be-cf27-4920-9e2c-6f8cebabdba0}, ! Layer 2
  {758dcfdc-f514-4882-a570-43fabbeb774f}, ! Layer 3
  {21b1a660-9a25-43f6-a68d-cdb1c5480a81}; ! Layer 4

OS:Material,
  {abe408be-cf27-4920-9e2c-6f8cebabdba0}, ! Handle
  1IN Wood Decking,                       ! Name
  MediumSmooth,                           ! Roughness
  0.0254,                                 ! Thickness {m}
  0.1211,                                 ! Conductivity {W/m-K}
  593,                                    ! Density {kg/m3}
  2510,                                   ! Specific Heat {J/kg-K}
  0.9,                                    ! Thermal Absorptance
  0.78,                                   ! Solar Absorptance
  0.78;                                   ! Visible Absorptance

OS:ComponentCost:LineItem,
  {f4797fd0-6fba-45fb-bb48-e5e47bf9defd}, ! Handle
  189.1-2009 Nonres 3A Roof Attic and Other, ! Name
  ,                                       ! Type
  Construction,                           ! Line Item Type
  189.1-2009 Nonres 3A Roof Attic and Other, ! Item Name
  ,                                       ! Object End Use Key
  ,                                       ! Quantity {dimensionless}
  36.871,                                 ! Material Cost {$}
  CostPerArea;                            ! Material Cost Units

