
OS:Version,
  {01b1d356-dfb4-4b69-829d-eea019dfdea7}, ! Handle
  0.9.3;                                  ! Version Identifier

OS:Material,
  {270b2ada-0aca-4ada-977f-fff7254a1726}, ! Handle
  GP01 1/2 GYPSUM,                        ! Name
  Smooth,                                 ! Roughness
  0.01271,                                ! Thickness {m}
  0.16,                                   ! Conductivity {W/m-K}
  800,                                    ! Density {kg/m3}
  1090,                                   ! Specific Heat {J/kg-K}
  0.9,                                    ! Thermal Absorptance
  0.7,                                    ! Solar Absorptance
  0.5;                                    ! Visible Absorptance

OS:ComponentCost:LineItem,
  {0e99e39b-0a50-4fd6-b9c7-ca095dfffa10}, ! Handle
  189.1-2009 Nonres 1A Int Wall,          ! Name
  ,                                       ! Type
  Construction,                           ! Line Item Type
  189.1-2009 Nonres 1A Int Wall,          ! Item Name
  ,                                       ! Object End Use Key
  ,                                       ! Quantity {dimensionless}
  0,                                      ! Material Cost {$}
  CostPerArea;                            ! Material Cost Units

OS:Material,
  {74e3c75f-3856-4eab-a9e4-b0e76b052c8a}, ! Handle
  GP01 1/2 GYPSUM 1,                      ! Name
  Smooth,                                 ! Roughness
  0.01271,                                ! Thickness {m}
  0.16,                                   ! Conductivity {W/m-K}
  800,                                    ! Density {kg/m3}
  1090,                                   ! Specific Heat {J/kg-K}
  0.9,                                    ! Thermal Absorptance
  0.7,                                    ! Solar Absorptance
  0.5;                                    ! Visible Absorptance

OS:Construction,
  {c551d994-5bc3-49bf-a96c-f27272d09310}, ! Handle
  189.1-2009 Nonres 1A Int Wall,          ! Name
  ,                                       ! Surface Rendering Name
  {270b2ada-0aca-4ada-977f-fff7254a1726}, ! Layer 1
  {270b2ada-0aca-4ada-977f-fff7254a1726}; ! Layer 2

