
OS:Version,
  {a3c36218-21cd-4539-bb8b-efd25b75d4d3}, ! Handle
  0.9.3;                                  ! Version Identifier

OS:Construction,
  {82b40838-3f40-473f-aad1-95f4565900f9}, ! Handle
  189.1-2009 Nonres 1A Int Wall,          ! Name
  ,                                       ! Surface Rendering Name
  {be38416a-1e0d-43bc-8f97-c30a2e8483a3}, ! Layer 1
  {be38416a-1e0d-43bc-8f97-c30a2e8483a3}; ! Layer 2

OS:Material,
  {be38416a-1e0d-43bc-8f97-c30a2e8483a3}, ! Handle
  GP01 1/2 GYPSUM,                        ! Name
  Smooth,                                 ! Roughness
  0.01271,                                ! Thickness {m}
  0.16,                                   ! Conductivity {W/m-K}
  800,                                    ! Density {kg/m3}
  1090,                                   ! Specific Heat {J/kg-K}
  0.9,                                    ! Thermal Absorptance
  0.7,                                    ! Solar Absorptance
  0.5;                                    ! Visible Absorptance

OS:ComponentCost:LineItem,
  {c9d114f6-ed12-4141-a6cf-132617d77aa9}, ! Handle
  189.1-2009 Nonres 1A Int Wall,          ! Name
  ,                                       ! Type
  Construction,                           ! Line Item Type
  189.1-2009 Nonres 1A Int Wall,          ! Item Name
  ,                                       ! Object End Use Key
  ,                                       ! Quantity {dimensionless}
  0,                                      ! Material Cost {$}
  CostPerArea;                            ! Material Cost Units

OS:ComponentData,
  {92ce8d56-c228-471c-ad7b-eb987424d70d}, ! Handle
  Component Data 1,                       ! Name
  {74f2c93e-5308-4e14-bdc1-fabd3ddadf11}, ! UUID
  {7860b9db-e71f-42c6-8556-6d038c9f4e81}, ! Version UUID
  1363979817,                             ! Creation Timestamp
  1363979817,                             ! Version Timestamp
  {82b40838-3f40-473f-aad1-95f4565900f9}, ! Name of Object 1
  {be38416a-1e0d-43bc-8f97-c30a2e8483a3}, ! Name of Object 2
  {c9d114f6-ed12-4141-a6cf-132617d77aa9}; ! Name of Object 3

