
OS:Version,
  {7320e59d-6cdf-4cd5-a450-8dca588a8a48}, ! Handle
  0.9.3;                                  ! Version Identifier

OS:Construction,
  {825c3732-1295-48a3-aad7-154aa6db751b}, ! Handle
  90.1 Windows Window Fixed 2323 Brk-Hpt-Std-ClrPye, ! Name
  ,                                       ! Surface Rendering Name
  {5fc6d565-aacd-4f2b-81f1-968af1847197}; ! Layer 1

OS:WindowMaterial:Glazing,
  {5fc6d565-aacd-4f2b-81f1-968af1847197}, ! Handle
  Theoretical Glass [390],                ! Name
  SpectralAverage,                        ! Optical Data Type
  ,                                       ! Window Glass Spectral Data Set Name
  0.003,                                  ! Thickness {m}
  0.354018,                               ! Solar Transmittance at Normal Incidence
  0.595982,                               ! Front Side Solar Reflectance at Normal Incidence
  0.595982,                               ! Back Side Solar Reflectance at Normal Incidence
  0.500108,                               ! Visible Transmittance at Normal Incidence
  0.449892,                               ! Front Side Visible Reflectance at Normal Incidence
  0.449892,                               ! Back Side Visible Reflectance at Normal Incidence
  0,                                      ! Infrared Transmittance at Normal Incidence
  0.9,                                    ! Front Side Infrared Hemispherical Emissivity
  0.9,                                    ! Back Side Infrared Hemispherical Emissivity
  0.0150091;                              ! Conductivity {W/m-K}

OS:ComponentCost:LineItem,
  {c29e70cd-d526-4061-8e70-188186a9e0b0}, ! Handle
  90.1 Windows Window Fixed 2323 Brk-Hpt-Std-ClrPye, ! Name
  ,                                       ! Type
  Construction,                           ! Line Item Type
  90.1 Windows Window Fixed 2323 Brk-Hpt-Std-ClrPye, ! Item Name
  ,                                       ! Object End Use Key
  ,                                       ! Quantity {dimensionless}
  0,                                      ! Material Cost {$}
  CostPerArea;                            ! Material Cost Units

OS:ComponentData,
  {1572911e-6fc7-41b7-9b35-668e9b84627e}, ! Handle
  Component Data 1,                       ! Name
  {6f2d192d-99ff-48ee-9151-93c098333197}, ! UUID
  {cf0beeee-c494-4bec-84d0-932b0c4d6c75}, ! Version UUID
  1363981013,                             ! Creation Timestamp
  1363981013,                             ! Version Timestamp
  {825c3732-1295-48a3-aad7-154aa6db751b}, ! Name of Object 1
  {5fc6d565-aacd-4f2b-81f1-968af1847197}, ! Name of Object 2
  {c29e70cd-d526-4061-8e70-188186a9e0b0}; ! Name of Object 3

