
OS:Version,
  {8aeae8e9-55be-4a9d-b90b-8f763f80b547}, ! Handle
  0.9.3;                                  ! Version Identifier

OS:WindowMaterial:Glazing,
  {4e227c48-6b5b-483c-8a70-ebe3ed5a8980}, ! Handle
  Theoretical Glass [390],                ! Name
  SpectralAverage,                        ! Optical Data Type
  ,                                       ! Window Glass Spectral Data Set Name
  0.003,                                  ! Thickness {m}
  0.354018,                               ! Solar Transmittance at Normal Incidence
  0.595982,                               ! Front Side Solar Reflectance at Normal Incidence
  0.595982,                               ! Back Side Solar Reflectance at Normal Incidence
  0.500108,                               ! Visible Transmittance at Normal Incidence
  0.449892,                               ! Front Side Visible Reflectance at Normal Incidence
  0.449892,                               ! Back Side Visible Reflectance at Normal Incidence
  0,                                      ! Infrared Transmittance at Normal Incidence
  0.9,                                    ! Front Side Infrared Hemispherical Emissivity
  0.9,                                    ! Back Side Infrared Hemispherical Emissivity
  0.0150091;                              ! Conductivity {W/m-K}

OS:Construction,
  {6933a942-efaa-4719-ba6a-90726998b464}, ! Handle
  90.1 Windows Window Fixed 2323 Brk-Hpt-Std-ClrPye, ! Name
  ,                                       ! Surface Rendering Name
  {4e227c48-6b5b-483c-8a70-ebe3ed5a8980}; ! Layer 1

OS:ComponentCost:LineItem,
  {a7fa3697-8caf-479d-a7bf-7b9af7506c50}, ! Handle
  90.1 Windows Window Fixed 2323 Brk-Hpt-Std-ClrPye, ! Name
  ,                                       ! Type
  Construction,                           ! Line Item Type
  90.1 Windows Window Fixed 2323 Brk-Hpt-Std-ClrPye, ! Item Name
  ,                                       ! Object End Use Key
  ,                                       ! Quantity {dimensionless}
  0,                                      ! Material Cost {$}
  CostPerArea;                            ! Material Cost Units

