
OS:Version,
  {612f8c71-6feb-47dc-8551-e8b79289950b}, ! Handle
  0.9.3;                                  ! Version Identifier

OS:Construction,
  {da7c7a4b-4d06-40bb-b79a-88842e4e80cc}, ! Handle
  90.1-2001 Res B4 Skylight without Curb, ! Name
  ,                                       ! Surface Rendering Name
  {39631c8f-279f-4f49-a1f9-2cf82361fd13}; ! Layer 1

OS:WindowMaterial:Glazing,
  {39631c8f-279f-4f49-a1f9-2cf82361fd13}, ! Handle
  Theoretical Glass [68],                 ! Name
  SpectralAverage,                        ! Optical Data Type
  ,                                       ! Window Glass Spectral Data Set Name
  0.003,                                  ! Thickness {m}
  0.346211,                               ! Solar Transmittance at Normal Incidence
  0.603789,                               ! Front Side Solar Reflectance at Normal Incidence
  0.603789,                               ! Back Side Solar Reflectance at Normal Incidence
  0.360158,                               ! Visible Transmittance at Normal Incidence
  0.589842,                               ! Front Side Visible Reflectance at Normal Incidence
  0.589842,                               ! Back Side Visible Reflectance at Normal Incidence
  0,                                      ! Infrared Transmittance at Normal Incidence
  0.999,                                  ! Front Side Infrared Hemispherical Emissivity
  0.999,                                  ! Back Side Infrared Hemispherical Emissivity
  72.7123;                                ! Conductivity {W/m-K}

OS:ComponentCost:LineItem,
  {77061971-a3d9-4741-8ce1-aa370c612b2c}, ! Handle
  90.1-2001 Res B4 Skylight without Curb, ! Name
  ,                                       ! Type
  Construction,                           ! Line Item Type
  90.1-2001 Res B4 Skylight without Curb, ! Item Name
  ,                                       ! Object End Use Key
  ,                                       ! Quantity {dimensionless}
  527.515,                                ! Material Cost {$}
  CostPerArea;                            ! Material Cost Units

OS:ComponentData,
  {bf3fcb59-eb93-4444-8966-2123ca543eac}, ! Handle
  Component Data 1,                       ! Name
  {dd6b8d9e-c4af-4d65-aa53-3e76585eb9b6}, ! UUID
  {992e84d6-0ce2-41e4-a485-96c3ce1326c8}, ! Version UUID
  1363981468,                             ! Creation Timestamp
  1363981468,                             ! Version Timestamp
  {da7c7a4b-4d06-40bb-b79a-88842e4e80cc}, ! Name of Object 1
  {39631c8f-279f-4f49-a1f9-2cf82361fd13}, ! Name of Object 2
  {77061971-a3d9-4741-8ce1-aa370c612b2c}; ! Name of Object 3

