
OS:Version,
  {3e61a217-e19b-4b9c-8c65-7feb5c50c684}, ! Handle
  0.9.3;                                  ! Version Identifier

OS:ComponentCost:LineItem,
  {07e568d5-460a-49b5-bcfd-a0e39326bf85}, ! Handle
  90.1-2007 Res 3A Ext Slab Unheated - 8in Slab with Carpet, ! Name
  ,                                       ! Type
  Construction,                           ! Line Item Type
  90.1-2007 Res 3A Ext Slab Unheated - 8in Slab with Carpet, ! Item Name
  ,                                       ! Object End Use Key
  ,                                       ! Quantity {dimensionless}
  45.52,                                  ! Material Cost {$}
  CostPerArea;                            ! Material Cost Units

OS:Construction,
  {ac201d78-4187-4d93-b041-61c91237af4f}, ! Handle
  90.1-2007 Res 3A Ext Slab Unheated - 8in Slab with Carpet, ! Name
  ,                                       ! Surface Rendering Name
  {aca75994-87fa-4393-a26c-84cfc04f4c25}, ! Layer 1
  {a8e06468-b41f-4c6e-bce5-f1e5ba6e884a}; ! Layer 2

OS:Material,
  {aca75994-87fa-4393-a26c-84cfc04f4c25}, ! Handle
  MAT-CC05 8 HW CONCRETE,                 ! Name
  Rough,                                  ! Roughness
  0.20321,                                ! Thickness {m}
  1.311,                                  ! Conductivity {W/m-K}
  2240,                                   ! Density {kg/m3}
  836.8,                                  ! Specific Heat {J/kg-K}
  0.9,                                    ! Thermal Absorptance
  0.7,                                    ! Solar Absorptance
  0.7;                                    ! Visible Absorptance

OS:Material:NoMass,
  {a8e06468-b41f-4c6e-bce5-f1e5ba6e884a}, ! Handle
  CP02 CARPET PAD,                        ! Name
  VeryRough,                              ! Roughness
  0.21648,                                ! Thermal Resistance {m2-K/W}
  0.9,                                    ! Thermal Absorptance
  0.7,                                    ! Solar Absorptance
  0.8;                                    ! Visible Absorptance

