
OS:Version,
  {64202041-adb9-423b-b74b-cfe82b241637}, ! Handle
  0.9.3;                                  ! Version Identifier

OS:Construction,
  {635768c2-01d9-49c9-b96c-67355beccf5f}, ! Handle
  90.1-1999 Nonres B8 Roof IEAD,          ! Name
  ,                                       ! Surface Rendering Name
  {441044b6-0cfa-466f-906e-242297793e00}, ! Layer 1
  {4b3b592d-0e1d-4329-be61-8830700c5646}, ! Layer 2
  {01146dbf-49a3-4c31-aee4-a3ca48d26263}; ! Layer 3

OS:Material,
  {441044b6-0cfa-466f-906e-242297793e00}, ! Handle
  Roof Membrane,                          ! Name
  VeryRough,                              ! Roughness
  0.0095,                                 ! Thickness {m}
  0.16,                                   ! Conductivity {W/m-K}
  1121.29,                                ! Density {kg/m3}
  1460,                                   ! Specific Heat {J/kg-K}
  0.9,                                    ! Thermal Absorptance
  0.7,                                    ! Solar Absorptance
  0.7;                                    ! Visible Absorptance

OS:Material,
  {4b3b592d-0e1d-4329-be61-8830700c5646}, ! Handle
  Roof Insulation,                        ! Name
  MediumRough,                            ! Roughness
  0.124958,                               ! Thickness {m}
  0.049,                                  ! Conductivity {W/m-K}
  265,                                    ! Density {kg/m3}
  836.8,                                  ! Specific Heat {J/kg-K}
  0.9,                                    ! Thermal Absorptance
  0.7,                                    ! Solar Absorptance
  0.7;                                    ! Visible Absorptance

OS:Material,
  {01146dbf-49a3-4c31-aee4-a3ca48d26263}, ! Handle
  Metal Decking,                          ! Name
  MediumSmooth,                           ! Roughness
  0.001524,                               ! Thickness {m}
  45.006,                                 ! Conductivity {W/m-K}
  7680,                                   ! Density {kg/m3}
  418.4,                                  ! Specific Heat {J/kg-K}
  0.9,                                    ! Thermal Absorptance
  0.7,                                    ! Solar Absorptance
  0.3;                                    ! Visible Absorptance

OS:ComponentCost:LineItem,
  {8cd16b64-3c9b-4d5b-b8b1-c373fbeb67bc}, ! Handle
  90.1-1999 Nonres B8 Roof IEAD,          ! Name
  ,                                       ! Type
  Construction,                           ! Line Item Type
  90.1-1999 Nonres B8 Roof IEAD,          ! Item Name
  ,                                       ! Object End Use Key
  ,                                       ! Quantity {dimensionless}
  49.208,                                 ! Material Cost {$}
  CostPerArea;                            ! Material Cost Units

