
OS:Version,
  {6a05a15f-d23d-4f0d-b02c-a36d93d17bb0}, ! Handle
  0.9.3;                                  ! Version Identifier

OS:Construction,
  {3e9d90e6-1f3c-4e90-a59a-df673e01d91f}, ! Handle
  189.1-2009 Res 3A Window Metal framing all other, ! Name
  ,                                       ! Surface Rendering Name
  {6cc735bf-5d29-4204-8f9c-c3d4058fde90}; ! Layer 1

OS:WindowMaterial:Glazing,
  {6cc735bf-5d29-4204-8f9c-c3d4058fde90}, ! Handle
  Theoretical Glass [202],                ! Name
  SpectralAverage,                        ! Optical Data Type
  ,                                       ! Window Glass Spectral Data Set Name
  0.003,                                  ! Thickness {m}
  0.232469,                               ! Solar Transmittance at Normal Incidence
  0.717531,                               ! Front Side Solar Reflectance at Normal Incidence
  0.717531,                               ! Back Side Solar Reflectance at Normal Incidence
  0.319199,                               ! Visible Transmittance at Normal Incidence
  0.630801,                               ! Front Side Visible Reflectance at Normal Incidence
  0.630801,                               ! Back Side Visible Reflectance at Normal Incidence
  0,                                      ! Infrared Transmittance at Normal Incidence
  0.9,                                    ! Front Side Infrared Hemispherical Emissivity
  0.9,                                    ! Back Side Infrared Hemispherical Emissivity
  0.019186;                               ! Conductivity {W/m-K}

OS:ComponentCost:LineItem,
  {ded42e70-3e69-4243-a84a-69dd04d9931e}, ! Handle
  189.1-2009 Res 3A Window Metal framing all other, ! Name
  ,                                       ! Type
  Construction,                           ! Line Item Type
  189.1-2009 Res 3A Window Metal framing all other, ! Item Name
  ,                                       ! Object End Use Key
  ,                                       ! Quantity {dimensionless}
  577.118,                                ! Material Cost {$}
  CostPerArea;                            ! Material Cost Units

OS:ComponentData,
  {2063d638-023d-4459-b3d3-a2a2316b3dee}, ! Handle
  Component Data 1,                       ! Name
  {2dbfcba0-ecbe-4453-9b55-087365b53a76}, ! UUID
  {7d5284ea-7d3c-4f72-84f4-f6c30783bfc3}, ! Version UUID
  1363980969,                             ! Creation Timestamp
  1363980969,                             ! Version Timestamp
  {3e9d90e6-1f3c-4e90-a59a-df673e01d91f}, ! Name of Object 1
  {6cc735bf-5d29-4204-8f9c-c3d4058fde90}, ! Name of Object 2
  {ded42e70-3e69-4243-a84a-69dd04d9931e}; ! Name of Object 3

