
OS:Version,
  {96090279-556a-4e5e-a030-ed8dc33e44d6}, ! Handle
  0.9.3;                                  ! Version Identifier

OS:Construction,
  {600b586d-be25-48b1-ae56-a7b875d92fd3}, ! Handle
  189.1-2009 Res 3A Window Metal framing all other, ! Name
  ,                                       ! Surface Rendering Name
  {41ebf892-a848-4d57-9259-2e74d229415e}; ! Layer 1

OS:WindowMaterial:Glazing,
  {41ebf892-a848-4d57-9259-2e74d229415e}, ! Handle
  Theoretical Glass [202],                ! Name
  SpectralAverage,                        ! Optical Data Type
  ,                                       ! Window Glass Spectral Data Set Name
  0.003,                                  ! Thickness {m}
  0.232469,                               ! Solar Transmittance at Normal Incidence
  0.717531,                               ! Front Side Solar Reflectance at Normal Incidence
  0.717531,                               ! Back Side Solar Reflectance at Normal Incidence
  0.319199,                               ! Visible Transmittance at Normal Incidence
  0.630801,                               ! Front Side Visible Reflectance at Normal Incidence
  0.630801,                               ! Back Side Visible Reflectance at Normal Incidence
  0,                                      ! Infrared Transmittance at Normal Incidence
  0.9,                                    ! Front Side Infrared Hemispherical Emissivity
  0.9,                                    ! Back Side Infrared Hemispherical Emissivity
  0.019186;                               ! Conductivity {W/m-K}

OS:ComponentCost:LineItem,
  {5f2b20f1-3b47-49c2-956d-6b6b3d2f405f}, ! Handle
  189.1-2009 Res 3A Window Metal framing all other, ! Name
  ,                                       ! Type
  Construction,                           ! Line Item Type
  189.1-2009 Res 3A Window Metal framing all other, ! Item Name
  ,                                       ! Object End Use Key
  ,                                       ! Quantity {dimensionless}
  577.118,                                ! Material Cost {$}
  CostPerArea;                            ! Material Cost Units

