
OS:Version,
  {55b7ef7a-8148-4b47-a92c-e86e8c66b803}, ! Handle
  0.9.3;                                  ! Version Identifier

OS:Construction,
  {3d7c8410-96ed-438c-8650-f5a10b93eae2}, ! Handle
  90.1 Windows Window Fixed 2122 Mtl-Grn-Std-ClrPye, ! Name
  ,                                       ! Surface Rendering Name
  {dbf93858-6805-4370-9a6d-e5b79f60f472}; ! Layer 1

OS:WindowMaterial:Glazing,
  {dbf93858-6805-4370-9a6d-e5b79f60f472}, ! Handle
  Theoretical Glass [320],                ! Name
  SpectralAverage,                        ! Optical Data Type
  ,                                       ! Window Glass Spectral Data Set Name
  0.003,                                  ! Thickness {m}
  0.452084,                               ! Solar Transmittance at Normal Incidence
  0.497916,                               ! Front Side Solar Reflectance at Normal Incidence
  0.497916,                               ! Back Side Solar Reflectance at Normal Incidence
  0.549983,                               ! Visible Transmittance at Normal Incidence
  0.400017,                               ! Front Side Visible Reflectance at Normal Incidence
  0.400017,                               ! Back Side Visible Reflectance at Normal Incidence
  0,                                      ! Infrared Transmittance at Normal Incidence
  0.9,                                    ! Front Side Infrared Hemispherical Emissivity
  0.9,                                    ! Back Side Infrared Hemispherical Emissivity
  0.0220475;                              ! Conductivity {W/m-K}

OS:ComponentCost:LineItem,
  {c692c280-bdc7-45df-9e41-94c2ab7ecf9f}, ! Handle
  90.1 Windows Window Fixed 2122 Mtl-Grn-Std-ClrPye, ! Name
  ,                                       ! Type
  Construction,                           ! Line Item Type
  90.1 Windows Window Fixed 2122 Mtl-Grn-Std-ClrPye, ! Item Name
  ,                                       ! Object End Use Key
  ,                                       ! Quantity {dimensionless}
  0,                                      ! Material Cost {$}
  CostPerArea;                            ! Material Cost Units

OS:ComponentData,
  {218c9d52-1869-4294-813e-c9e0088dfd33}, ! Handle
  Component Data 1,                       ! Name
  {2c0bdd8f-5b36-425f-80ba-a96d71033d2c}, ! UUID
  {f2c675f8-4ee0-479a-aa44-6af740c3a734}, ! Version UUID
  1363981007,                             ! Creation Timestamp
  1363981007,                             ! Version Timestamp
  {3d7c8410-96ed-438c-8650-f5a10b93eae2}, ! Name of Object 1
  {dbf93858-6805-4370-9a6d-e5b79f60f472}, ! Name of Object 2
  {c692c280-bdc7-45df-9e41-94c2ab7ecf9f}; ! Name of Object 3

