
OS:Version,
  {f60f153d-7c34-409f-ac5f-85ab942e372d}, ! Handle
  0.9.3;                                  ! Version Identifier

OS:ComponentCost:LineItem,
  {c60e94e8-da72-4e27-b468-0669f4fe69a0}, ! Handle
  90.1 Windows Window Fixed 2122 Mtl-Grn-Std-ClrPye, ! Name
  ,                                       ! Type
  Construction,                           ! Line Item Type
  90.1 Windows Window Fixed 2122 Mtl-Grn-Std-ClrPye, ! Item Name
  ,                                       ! Object End Use Key
  ,                                       ! Quantity {dimensionless}
  0,                                      ! Material Cost {$}
  CostPerArea;                            ! Material Cost Units

OS:Construction,
  {0974b3a3-f0f5-4765-aca9-c71104fab85d}, ! Handle
  90.1 Windows Window Fixed 2122 Mtl-Grn-Std-ClrPye, ! Name
  ,                                       ! Surface Rendering Name
  {0a3632ec-94fc-4a9b-b126-4b109562c346}; ! Layer 1

OS:WindowMaterial:Glazing,
  {0a3632ec-94fc-4a9b-b126-4b109562c346}, ! Handle
  Theoretical Glass [320],                ! Name
  SpectralAverage,                        ! Optical Data Type
  ,                                       ! Window Glass Spectral Data Set Name
  0.003,                                  ! Thickness {m}
  0.452084,                               ! Solar Transmittance at Normal Incidence
  0.497916,                               ! Front Side Solar Reflectance at Normal Incidence
  0.497916,                               ! Back Side Solar Reflectance at Normal Incidence
  0.549983,                               ! Visible Transmittance at Normal Incidence
  0.400017,                               ! Front Side Visible Reflectance at Normal Incidence
  0.400017,                               ! Back Side Visible Reflectance at Normal Incidence
  0,                                      ! Infrared Transmittance at Normal Incidence
  0.9,                                    ! Front Side Infrared Hemispherical Emissivity
  0.9,                                    ! Back Side Infrared Hemispherical Emissivity
  0.0220475;                              ! Conductivity {W/m-K}

