
OS:Version,
  {6ca86b52-02b8-4a54-9937-4e4788acf52a}, ! Handle
  0.9.3;                                  ! Version Identifier

OS:Construction,
  {10f8419b-d54c-4364-ab30-36ee8efdf277}, ! Handle
  Title 24-2008 Nonres 9 Ext Slab Unheated - 4in Slab with Carpet, ! Name
  ,                                       ! Surface Rendering Name
  {e9c4d540-b8f6-42db-aea0-bd2e4973813b}, ! Layer 1
  {b626dc76-2e79-46b6-8ad9-a8dbfba5db4a}; ! Layer 2

OS:Material,
  {e9c4d540-b8f6-42db-aea0-bd2e4973813b}, ! Handle
  MAT-CC05 4 HW CONCRETE,                 ! Name
  Rough,                                  ! Roughness
  0.1016,                                 ! Thickness {m}
  1.311,                                  ! Conductivity {W/m-K}
  2240,                                   ! Density {kg/m3}
  836.8,                                  ! Specific Heat {J/kg-K}
  0.9,                                    ! Thermal Absorptance
  0.7,                                    ! Solar Absorptance
  0.7;                                    ! Visible Absorptance

OS:Material:NoMass,
  {b626dc76-2e79-46b6-8ad9-a8dbfba5db4a}, ! Handle
  CP02 CARPET PAD,                        ! Name
  VeryRough,                              ! Roughness
  0.21648,                                ! Thermal Resistance {m2-K/W}
  0.9,                                    ! Thermal Absorptance
  0.7,                                    ! Solar Absorptance
  0.8;                                    ! Visible Absorptance

OS:ComponentCost:LineItem,
  {9c2b5ce5-956d-4f4d-8cf4-6dfda0de9011}, ! Handle
  Title 24-2008 Nonres 9 Ext Slab Unheated - 4in Slab with Carpet, ! Name
  ,                                       ! Type
  Construction,                           ! Line Item Type
  Title 24-2008 Nonres 9 Ext Slab Unheated - 4in Slab with Carpet, ! Item Name
  ,                                       ! Object End Use Key
  ,                                       ! Quantity {dimensionless}
  45.52,                                  ! Material Cost {$}
  CostPerArea;                            ! Material Cost Units

OS:ComponentData,
  {0b0aed60-9ed4-4fd4-bd28-cccc8f1c0b9f}, ! Handle
  Component Data 1,                       ! Name
  {b9ce4b8a-201c-4c8f-8482-952b5a8150a0}, ! UUID
  {3ff0f75b-aeb8-4795-8f0e-a83916e0f00b}, ! Version UUID
  1363982054,                             ! Creation Timestamp
  1363982054,                             ! Version Timestamp
  {10f8419b-d54c-4364-ab30-36ee8efdf277}, ! Name of Object 1
  {e9c4d540-b8f6-42db-aea0-bd2e4973813b}, ! Name of Object 2
  {b626dc76-2e79-46b6-8ad9-a8dbfba5db4a}, ! Name of Object 3
  {9c2b5ce5-956d-4f4d-8cf4-6dfda0de9011}; ! Name of Object 4

