
OS:Version,
  {baaa91e3-1ed7-4fe1-8339-4fe502187264}, ! Handle
  0.9.3;                                  ! Version Identifier

OS:ComponentCost:LineItem,
  {c7cd8a3d-8cfb-485e-913e-bd97188da317}, ! Handle
  Title 24-2008 Nonres 9 Ext Slab Unheated - 4in Slab with Carpet, ! Name
  ,                                       ! Type
  Construction,                           ! Line Item Type
  Title 24-2008 Nonres 9 Ext Slab Unheated - 4in Slab with Carpet, ! Item Name
  ,                                       ! Object End Use Key
  ,                                       ! Quantity {dimensionless}
  45.52,                                  ! Material Cost {$}
  CostPerArea;                            ! Material Cost Units

OS:Material:NoMass,
  {fb139f6b-7d96-464d-9ec8-1513c8b9a58b}, ! Handle
  CP02 CARPET PAD,                        ! Name
  VeryRough,                              ! Roughness
  0.21648,                                ! Thermal Resistance {m2-K/W}
  0.9,                                    ! Thermal Absorptance
  0.7,                                    ! Solar Absorptance
  0.8;                                    ! Visible Absorptance

OS:Construction,
  {c9b3485e-42d2-4b95-8e2e-52cf8092cc02}, ! Handle
  Title 24-2008 Nonres 9 Ext Slab Unheated - 4in Slab with Carpet, ! Name
  ,                                       ! Surface Rendering Name
  {ce8b19e4-bdaa-4af9-958b-6ab9df05dbcd}, ! Layer 1
  {fb139f6b-7d96-464d-9ec8-1513c8b9a58b}; ! Layer 2

OS:Material,
  {ce8b19e4-bdaa-4af9-958b-6ab9df05dbcd}, ! Handle
  MAT-CC05 4 HW CONCRETE,                 ! Name
  Rough,                                  ! Roughness
  0.1016,                                 ! Thickness {m}
  1.311,                                  ! Conductivity {W/m-K}
  2240,                                   ! Density {kg/m3}
  836.8,                                  ! Specific Heat {J/kg-K}
  0.9,                                    ! Thermal Absorptance
  0.7,                                    ! Solar Absorptance
  0.7;                                    ! Visible Absorptance

