
OS:Version,
  {18aef827-22db-4f0a-9584-c0823d54f502}, ! Handle
  0.9.3;                                  ! Version Identifier

OS:Construction,
  {caa174d3-49c8-474c-b19c-ab042195d837}, ! Handle
  90.1-2001 Res B24 Window Fixed,         ! Name
  ,                                       ! Surface Rendering Name
  {6ca1f554-cfae-474c-85b9-c7e87f9c426a}; ! Layer 1

OS:WindowMaterial:Glazing,
  {6ca1f554-cfae-474c-85b9-c7e87f9c426a}, ! Handle
  Theoretical Glass [110],                ! Name
  SpectralAverage,                        ! Optical Data Type
  ,                                       ! Window Glass Spectral Data Set Name
  0.003,                                  ! Thickness {m}
  0.438713,                               ! Solar Transmittance at Normal Incidence
  0.511287,                               ! Front Side Solar Reflectance at Normal Incidence
  0.511287,                               ! Back Side Solar Reflectance at Normal Incidence
  0.460166,                               ! Visible Transmittance at Normal Incidence
  0.489834,                               ! Front Side Visible Reflectance at Normal Incidence
  0.489834,                               ! Back Side Visible Reflectance at Normal Incidence
  0,                                      ! Infrared Transmittance at Normal Incidence
  0.9,                                    ! Front Side Infrared Hemispherical Emissivity
  0.9,                                    ! Back Side Infrared Hemispherical Emissivity
  0.0089223;                              ! Conductivity {W/m-K}

OS:ComponentCost:LineItem,
  {183f26ab-4167-4137-8271-d176453afb67}, ! Handle
  90.1-2001 Res B24 Window Fixed,         ! Name
  ,                                       ! Type
  Construction,                           ! Line Item Type
  90.1-2001 Res B24 Window Fixed,         ! Item Name
  ,                                       ! Object End Use Key
  ,                                       ! Quantity {dimensionless}
  600.037,                                ! Material Cost {$}
  CostPerArea;                            ! Material Cost Units

