
OS:Version,
  {963591ca-75a8-47a9-9627-bd5b2a601ce9}, ! Handle
  0.9.3;                                  ! Version Identifier

OS:ComponentCost:LineItem,
  {dd7a5af1-123f-4068-a4fd-9d9bdc894f81}, ! Handle
  90.1-2001 Nonres B26 Roof Attic and Other, ! Name
  ,                                       ! Type
  Construction,                           ! Line Item Type
  90.1-2001 Nonres B26 Roof Attic and Other, ! Item Name
  ,                                       ! Object End Use Key
  ,                                       ! Quantity {dimensionless}
  38.449,                                 ! Material Cost {$}
  CostPerArea;                            ! Material Cost Units

OS:Construction,
  {d738e266-fb49-475b-8aca-74764a688d61}, ! Handle
  90.1-2001 Nonres B26 Roof Attic and Other, ! Name
  ,                                       ! Surface Rendering Name
  {1434bc14-e3db-4ac7-a534-d5d3ebcd29a1}, ! Layer 1
  {0dbd0991-e7b6-4b9e-86ab-19f3aefa9d39}, ! Layer 2
  {b62ef788-100d-4afd-8171-230fc3a2278b}, ! Layer 3
  {92de6f38-c897-4d34-97ea-1b91b3634611}; ! Layer 4

OS:Material,
  {1434bc14-e3db-4ac7-a534-d5d3ebcd29a1}, ! Handle
  Wood Shingles,                          ! Name
  VeryRough,                              ! Roughness
  0.0178,                                 ! Thickness {m}
  0.115,                                  ! Conductivity {W/m-K}
  513,                                    ! Density {kg/m3}
  1255,                                   ! Specific Heat {J/kg-K}
  0.9,                                    ! Thermal Absorptance
  0.78,                                   ! Solar Absorptance
  0.78;                                   ! Visible Absorptance

OS:Material,
  {0dbd0991-e7b6-4b9e-86ab-19f3aefa9d39}, ! Handle
  1IN Wood Decking,                       ! Name
  MediumSmooth,                           ! Roughness
  0.0254,                                 ! Thickness {m}
  0.1211,                                 ! Conductivity {W/m-K}
  593,                                    ! Density {kg/m3}
  2510,                                   ! Specific Heat {J/kg-K}
  0.9,                                    ! Thermal Absorptance
  0.78,                                   ! Solar Absorptance
  0.78;                                   ! Visible Absorptance

OS:Material,
  {b62ef788-100d-4afd-8171-230fc3a2278b}, ! Handle
  Roof Insulation [11],                   ! Name
  MediumRough,                            ! Roughness
  0.474289,                               ! Thickness {m}
  0.049,                                  ! Conductivity {W/m-K}
  265,                                    ! Density {kg/m3}
  836.8,                                  ! Specific Heat {J/kg-K}
  0.9,                                    ! Thermal Absorptance
  0.7,                                    ! Solar Absorptance
  0.7;                                    ! Visible Absorptance

OS:Material,
  {92de6f38-c897-4d34-97ea-1b91b3634611}, ! Handle
  1/2IN Gypsum,                           ! Name
  Smooth,                                 ! Roughness
  0.01271,                                ! Thickness {m}
  0.16,                                   ! Conductivity {W/m-K}
  784.9,                                  ! Density {kg/m3}
  830,                                    ! Specific Heat {J/kg-K}
  0.9,                                    ! Thermal Absorptance
  0.92,                                   ! Solar Absorptance
  0.92;                                   ! Visible Absorptance

