
OS:Version,
  {1ed86030-2548-4a1d-b55b-bbd87d729119}, ! Handle
  0.9.3;                                  ! Version Identifier

OS:ComponentCost:LineItem,
  {d31e9cf4-e4d4-4a29-ac43-bf596fb8a4fd}, ! Handle
  90.1-2001 Nonres B11 Ext Wall Metal Building, ! Name
  ,                                       ! Type
  Construction,                           ! Line Item Type
  90.1-2001 Nonres B11 Ext Wall Metal Building, ! Item Name
  ,                                       ! Object End Use Key
  ,                                       ! Quantity {dimensionless}
  98.78,                                  ! Material Cost {$}
  CostPerArea;                            ! Material Cost Units

OS:Construction,
  {4339ab10-cb63-4a11-b3d9-9d9e9a4536d2}, ! Handle
  90.1-2001 Nonres B11 Ext Wall Metal Building, ! Name
  ,                                       ! Surface Rendering Name
  {f0fe10ca-9f43-407c-a271-0269dcdb079a}, ! Layer 1
  {3756218e-d7de-40db-9e64-6602fd25c1ab}, ! Layer 2
  {003cc48a-2cfe-4a33-b010-f6f5d15a7c24}; ! Layer 3

OS:Material,
  {f0fe10ca-9f43-407c-a271-0269dcdb079a}, ! Handle
  Metal Siding,                           ! Name
  Smooth,                                 ! Roughness
  0.0015,                                 ! Thickness {m}
  44.96,                                  ! Conductivity {W/m-K}
  7688.86,                                ! Density {kg/m3}
  410,                                    ! Specific Heat {J/kg-K}
  0.9,                                    ! Thermal Absorptance
  0.2,                                    ! Solar Absorptance
  0.2;                                    ! Visible Absorptance

OS:Material,
  {3756218e-d7de-40db-9e64-6602fd25c1ab}, ! Handle
  Wall Insulation,                        ! Name
  MediumRough,                            ! Roughness
  0.0598725,                              ! Thickness {m}
  0.045,                                  ! Conductivity {W/m-K}
  265,                                    ! Density {kg/m3}
  836.8,                                  ! Specific Heat {J/kg-K}
  0.9,                                    ! Thermal Absorptance
  0.7,                                    ! Solar Absorptance
  0.7;                                    ! Visible Absorptance

OS:Material,
  {003cc48a-2cfe-4a33-b010-f6f5d15a7c24}, ! Handle
  1/2IN Gypsum,                           ! Name
  Smooth,                                 ! Roughness
  0.01271,                                ! Thickness {m}
  0.16,                                   ! Conductivity {W/m-K}
  784.9,                                  ! Density {kg/m3}
  830,                                    ! Specific Heat {J/kg-K}
  0.9,                                    ! Thermal Absorptance
  0.92,                                   ! Solar Absorptance
  0.92;                                   ! Visible Absorptance

