
OS:Version,
  {81277b4f-de92-467c-bd32-b66e1676ffd7}, ! Handle
  0.9.3;                                  ! Version Identifier

OS:WindowMaterial:Glazing,
  {64474c8b-c831-45a8-b3b8-113a81ab76e4}, ! Handle
  Theoretical Glass [278],                ! Name
  SpectralAverage,                        ! Optical Data Type
  ,                                       ! Window Glass Spectral Data Set Name
  0.003,                                  ! Thickness {m}
  0.591857,                               ! Solar Transmittance at Normal Incidence
  0.358143,                               ! Front Side Solar Reflectance at Normal Incidence
  0.358143,                               ! Back Side Solar Reflectance at Normal Incidence
  0.659809,                               ! Visible Transmittance at Normal Incidence
  0.290191,                               ! Front Side Visible Reflectance at Normal Incidence
  0.290191,                               ! Back Side Visible Reflectance at Normal Incidence
  0,                                      ! Infrared Transmittance at Normal Incidence
  0.9,                                    ! Front Side Infrared Hemispherical Emissivity
  0.9,                                    ! Back Side Infrared Hemispherical Emissivity
  0.0213046;                              ! Conductivity {W/m-K}

OS:ComponentCost:LineItem,
  {8b418236-2c10-4ea6-8484-b9c4f88cbc01}, ! Handle
  90.1 Windows Window Fixed 2131 Mtl-Clr-Std-ClrSpe, ! Name
  ,                                       ! Type
  Construction,                           ! Line Item Type
  90.1 Windows Window Fixed 2131 Mtl-Clr-Std-ClrSpe, ! Item Name
  ,                                       ! Object End Use Key
  ,                                       ! Quantity {dimensionless}
  0,                                      ! Material Cost {$}
  CostPerArea;                            ! Material Cost Units

OS:Construction,
  {928e66bb-7162-4d55-ab83-d5a559f3ceaa}, ! Handle
  90.1 Windows Window Fixed 2131 Mtl-Clr-Std-ClrSpe, ! Name
  ,                                       ! Surface Rendering Name
  {64474c8b-c831-45a8-b3b8-113a81ab76e4}; ! Layer 1

