
OS:Version,
  {d6347eb1-cdaf-4cbb-ba57-e5a88a7e1755}, ! Handle
  0.9.3;                                  ! Version Identifier

OS:Material,
  {703906bd-ae92-4c01-badc-2449557d57b2}, ! Handle
  1IN Stucco,                             ! Name
  Smooth,                                 ! Roughness
  0.0253,                                 ! Thickness {m}
  0.6918,                                 ! Conductivity {W/m-K}
  1858,                                   ! Density {kg/m3}
  837,                                    ! Specific Heat {J/kg-K}
  0.9,                                    ! Thermal Absorptance
  0.92,                                   ! Solar Absorptance
  0.92;                                   ! Visible Absorptance

OS:Material,
  {c28bd575-a316-4dd9-b8d8-f4533a9c2380}, ! Handle
  8IN Concrete HW,                        ! Name
  MediumRough,                            ! Roughness
  0.2033,                                 ! Thickness {m}
  1.7296,                                 ! Conductivity {W/m-K}
  2243,                                   ! Density {kg/m3}
  837,                                    ! Specific Heat {J/kg-K}
  0.9,                                    ! Thermal Absorptance
  0.65,                                   ! Solar Absorptance
  0.65;                                   ! Visible Absorptance

OS:Construction,
  {3e127f6b-bd8d-493b-83cd-d0d0bf704d9b}, ! Handle
  90.1-2004 Nonres 2A Ext Wall Mass,      ! Name
  ,                                       ! Surface Rendering Name
  {703906bd-ae92-4c01-badc-2449557d57b2}, ! Layer 1
  {c28bd575-a316-4dd9-b8d8-f4533a9c2380}, ! Layer 2
  {edfa7fcd-d900-4121-962f-20a237bbf55c}; ! Layer 3

OS:Material,
  {edfa7fcd-d900-4121-962f-20a237bbf55c}, ! Handle
  1/2IN Gypsum,                           ! Name
  Smooth,                                 ! Roughness
  0.01271,                                ! Thickness {m}
  0.16,                                   ! Conductivity {W/m-K}
  784.9,                                  ! Density {kg/m3}
  830,                                    ! Specific Heat {J/kg-K}
  0.9,                                    ! Thermal Absorptance
  0.92,                                   ! Solar Absorptance
  0.92;                                   ! Visible Absorptance

OS:ComponentCost:LineItem,
  {4cadbb46-46df-454a-9135-93683d954615}, ! Handle
  90.1-2004 Nonres 2A Ext Wall Mass,      ! Name
  ,                                       ! Type
  Construction,                           ! Line Item Type
  90.1-2004 Nonres 2A Ext Wall Mass,      ! Item Name
  ,                                       ! Object End Use Key
  ,                                       ! Quantity {dimensionless}
  41.397,                                 ! Material Cost {$}
  CostPerArea;                            ! Material Cost Units

