
OS:Version,
  {b5d272b0-c9e7-4f0f-8cdb-27881e53b841}, ! Handle
  0.9.3;                                  ! Version Identifier

OS:Material,
  {60703bb6-ffcd-4538-800c-6e11d15805bb}, ! Handle
  1/2IN Gypsum,                           ! Name
  Smooth,                                 ! Roughness
  0.01271,                                ! Thickness {m}
  0.16,                                   ! Conductivity {W/m-K}
  784.9,                                  ! Density {kg/m3}
  830,                                    ! Specific Heat {J/kg-K}
  0.9,                                    ! Thermal Absorptance
  0.92,                                   ! Solar Absorptance
  0.92;                                   ! Visible Absorptance

OS:ComponentCost:LineItem,
  {90f74206-0c96-45e9-92a8-9d3a97ae9b18}, ! Handle
  90.1-2004 Res 8A Ext Wall Steel-Framed, ! Name
  ,                                       ! Type
  Construction,                           ! Line Item Type
  90.1-2004 Res 8A Ext Wall Steel-Framed, ! Item Name
  ,                                       ! Object End Use Key
  ,                                       ! Quantity {dimensionless}
  97.384,                                 ! Material Cost {$}
  CostPerArea;                            ! Material Cost Units

OS:Construction,
  {37787257-ec0e-461e-a243-91aace29f36e}, ! Handle
  90.1-2004 Res 8A Ext Wall Steel-Framed, ! Name
  ,                                       ! Surface Rendering Name
  {c3ea823b-08a9-4b17-967a-beb8d2ad6d4a}, ! Layer 1
  {fbd09eaf-b313-47ee-b959-1fd46146044c}, ! Layer 2
  {60703bb6-ffcd-4538-800c-6e11d15805bb}; ! Layer 3

OS:Material:NoMass,
  {c3ea823b-08a9-4b17-967a-beb8d2ad6d4a}, ! Handle
  MAT-SHEATH,                             ! Name
  Rough,                                  ! Roughness
  0.36256,                                ! Thermal Resistance {m2-K/W}
  0.9,                                    ! Thermal Absorptance
  0.7,                                    ! Solar Absorptance
  0.7;                                    ! Visible Absorptance

OS:Material,
  {fbd09eaf-b313-47ee-b959-1fd46146044c}, ! Handle
  Wall Insulation [15],                   ! Name
  MediumRough,                            ! Roughness
  0.117292,                               ! Thickness {m}
  0.045,                                  ! Conductivity {W/m-K}
  265,                                    ! Density {kg/m3}
  836.8,                                  ! Specific Heat {J/kg-K}
  0.9,                                    ! Thermal Absorptance
  0.7,                                    ! Solar Absorptance
  0.7;                                    ! Visible Absorptance

