
OS:Version,
  {135535d3-1a42-413f-8a27-15b98a037cf4}, !- Handle
  1.0.6;                                  !- Version Identifier

OS:WindowMaterial:Glazing,
  {9fbdc3cd-f66b-4e92-b9ea-178c36074334}, !- Handle
  189.1-2011 NONRES 6B METAL FRAMING ENTRANCE DOOR THEORETICAL GLAZING, !- Name
  SpectralAverage,                        !- Optical Data Type
  ,                                       !- Window Glass Spectral Data Set Name
  0.002,                                  !- Thickness {m}
  0.27154,                                !- Solar Transmittance at Normal Incidence
  0.36038,                                !- Front Side Solar Reflectance at Normal Incidence
  0.36038,                                !- Back Side Solar Reflectance at Normal Incidence
  0.27154,                                !- Visible Transmittance at Normal Incidence
  0.36038,                                !- Front Side Visible Reflectance at Normal Incidence
  0.36038,                                !- Back Side Visible Reflectance at Normal Incidence
  0,                                      !- Infrared Transmittance at Normal Incidence
  0.84,                                   !- Front Side Infrared Hemispherical Emissivity
  0.84,                                   !- Back Side Infrared Hemispherical Emissivity
  0.02398,                                !- Conductivity {W/m-K}
  1,                                      !- Dirt Correction Factor for Solar and Visible Transmittance
  No;                                     !- Solar Diffusing

OS:Construction,
  {bd794d75-c708-49cc-af27-ecb3beb28134}, !- Handle
  189.1-2011 NONRES 6B METAL FRAMING ENTRANCE DOOR, !- Name
  ,                                       !- Surface Rendering Name
  {9fbdc3cd-f66b-4e92-b9ea-178c36074334}; !- Layer 1

