
OS:Version,
  {19df0b96-fb18-4f18-b273-649f8baf52fc}, ! Handle
  0.9.3;                                  ! Version Identifier

OS:Material,
  {083a358f-e78a-43ba-a7ae-22f9c5a36cbe}, ! Handle
  MAT-CC05 8 HW CONCRETE,                 ! Name
  Rough,                                  ! Roughness
  0.20321,                                ! Thickness {m}
  1.311,                                  ! Conductivity {W/m-K}
  2240,                                   ! Density {kg/m3}
  836.8,                                  ! Specific Heat {J/kg-K}
  0.9,                                    ! Thermal Absorptance
  0.7,                                    ! Solar Absorptance
  0.7;                                    ! Visible Absorptance

OS:ComponentCost:LineItem,
  {2298278a-908d-457f-8721-0a0139896735}, ! Handle
  90.1-1999 Nonres B2 Ext Slab Unheated - 8in Slab without Carpet, ! Name
  ,                                       ! Type
  Construction,                           ! Line Item Type
  90.1-1999 Nonres B2 Ext Slab Unheated - 8in Slab without Carpet, ! Item Name
  ,                                       ! Object End Use Key
  ,                                       ! Quantity {dimensionless}
  45.52,                                  ! Material Cost {$}
  CostPerArea;                            ! Material Cost Units

OS:Construction,
  {3f9d94fe-8673-4b94-8e80-ce59797429d6}, ! Handle
  90.1-1999 Nonres B2 Ext Slab Unheated - 8in Slab without Carpet, ! Name
  ,                                       ! Surface Rendering Name
  {083a358f-e78a-43ba-a7ae-22f9c5a36cbe}; ! Layer 1

