
OS:Version,
  {62a0906a-bfa2-4529-a0b3-ef532529ee00}, ! Handle
  0.9.3;                                  ! Version Identifier

OS:Construction,
  {42fce226-43b0-43da-b338-f4bd543eedda}, ! Handle
  AEDG-SmOffice 5B Roof Attic and Other,  ! Name
  ,                                       ! Surface Rendering Name
  {69937299-a0d7-491f-9590-0a104f0ce642}, ! Layer 1
  {db492ae9-5992-4603-acda-54ebbb7c6216}, ! Layer 2
  {6383d60b-b0c3-44d3-97ba-5818efb8acf3}, ! Layer 3
  {146b59fb-520e-4482-8e5a-d538fa637029}; ! Layer 4

OS:Material,
  {69937299-a0d7-491f-9590-0a104f0ce642}, ! Handle
  Wood Shingles,                          ! Name
  VeryRough,                              ! Roughness
  0.0178,                                 ! Thickness {m}
  0.115,                                  ! Conductivity {W/m-K}
  513,                                    ! Density {kg/m3}
  1255,                                   ! Specific Heat {J/kg-K}
  0.9,                                    ! Thermal Absorptance
  0.78,                                   ! Solar Absorptance
  0.78;                                   ! Visible Absorptance

OS:Material,
  {db492ae9-5992-4603-acda-54ebbb7c6216}, ! Handle
  1IN Wood Decking,                       ! Name
  MediumSmooth,                           ! Roughness
  0.0254,                                 ! Thickness {m}
  0.1211,                                 ! Conductivity {W/m-K}
  593,                                    ! Density {kg/m3}
  2510,                                   ! Specific Heat {J/kg-K}
  0.9,                                    ! Thermal Absorptance
  0.78,                                   ! Solar Absorptance
  0.78;                                   ! Visible Absorptance

OS:Material,
  {6383d60b-b0c3-44d3-97ba-5818efb8acf3}, ! Handle
  Roof Insulation [5],                    ! Name
  MediumRough,                            ! Roughness
  0.286906,                               ! Thickness {m}
  0.049,                                  ! Conductivity {W/m-K}
  265,                                    ! Density {kg/m3}
  836.8,                                  ! Specific Heat {J/kg-K}
  0.9,                                    ! Thermal Absorptance
  0.7,                                    ! Solar Absorptance
  0.7;                                    ! Visible Absorptance

OS:Material,
  {146b59fb-520e-4482-8e5a-d538fa637029}, ! Handle
  1/2IN Gypsum,                           ! Name
  Smooth,                                 ! Roughness
  0.01271,                                ! Thickness {m}
  0.16,                                   ! Conductivity {W/m-K}
  784.9,                                  ! Density {kg/m3}
  830,                                    ! Specific Heat {J/kg-K}
  0.9,                                    ! Thermal Absorptance
  0.92,                                   ! Solar Absorptance
  0.92;                                   ! Visible Absorptance

OS:ComponentCost:LineItem,
  {5a4d7e61-a3d7-44ff-81ae-85deb160464b}, ! Handle
  AEDG-SmOffice 5B Roof Attic and Other,  ! Name
  ,                                       ! Type
  Construction,                           ! Line Item Type
  AEDG-SmOffice 5B Roof Attic and Other,  ! Item Name
  ,                                       ! Object End Use Key
  ,                                       ! Quantity {dimensionless}
  34.757,                                 ! Material Cost {$}
  CostPerArea;                            ! Material Cost Units

OS:ComponentData,
  {5964e95f-7b7b-4e89-919c-f7596146decc}, ! Handle
  Component Data 1,                       ! Name
  {a964c4f5-7a88-45b0-a888-4ebc808f8d10}, ! UUID
  {3a8c37e2-5b0d-432e-b710-a5fc979a6654}, ! Version UUID
  1363981954,                             ! Creation Timestamp
  1363981954,                             ! Version Timestamp
  {42fce226-43b0-43da-b338-f4bd543eedda}, ! Name of Object 1
  {69937299-a0d7-491f-9590-0a104f0ce642}, ! Name of Object 2
  {db492ae9-5992-4603-acda-54ebbb7c6216}, ! Name of Object 3
  {6383d60b-b0c3-44d3-97ba-5818efb8acf3}, ! Name of Object 4
  {146b59fb-520e-4482-8e5a-d538fa637029}, ! Name of Object 5
  {5a4d7e61-a3d7-44ff-81ae-85deb160464b}; ! Name of Object 6

