
OS:Version,
  {5fdf9d28-9176-40bd-91ab-c1172678befc}, ! Handle
  0.9.3;                                  ! Version Identifier

OS:Material,
  {6b956bf1-3b73-4251-99f6-22de52dc07d8}, ! Handle
  1IN Wood Decking,                       ! Name
  MediumSmooth,                           ! Roughness
  0.0254,                                 ! Thickness {m}
  0.1211,                                 ! Conductivity {W/m-K}
  593,                                    ! Density {kg/m3}
  2510,                                   ! Specific Heat {J/kg-K}
  0.9,                                    ! Thermal Absorptance
  0.78,                                   ! Solar Absorptance
  0.78;                                   ! Visible Absorptance

OS:Construction,
  {962b4de8-840b-4775-9e03-d1c39ca75363}, ! Handle
  AEDG-SmOffice 5B Roof Attic and Other,  ! Name
  ,                                       ! Surface Rendering Name
  {07c80720-d76d-4b03-8c25-4e8732ca6469}, ! Layer 1
  {6b956bf1-3b73-4251-99f6-22de52dc07d8}, ! Layer 2
  {8b1d15d7-3d8f-4822-9e2b-72502faaa20c}, ! Layer 3
  {38771bf3-9693-44a7-ae68-a4dfe55471bd}; ! Layer 4

OS:Material,
  {07c80720-d76d-4b03-8c25-4e8732ca6469}, ! Handle
  Wood Shingles,                          ! Name
  VeryRough,                              ! Roughness
  0.0178,                                 ! Thickness {m}
  0.115,                                  ! Conductivity {W/m-K}
  513,                                    ! Density {kg/m3}
  1255,                                   ! Specific Heat {J/kg-K}
  0.9,                                    ! Thermal Absorptance
  0.78,                                   ! Solar Absorptance
  0.78;                                   ! Visible Absorptance

OS:Material,
  {8b1d15d7-3d8f-4822-9e2b-72502faaa20c}, ! Handle
  Roof Insulation [5],                    ! Name
  MediumRough,                            ! Roughness
  0.286906,                               ! Thickness {m}
  0.049,                                  ! Conductivity {W/m-K}
  265,                                    ! Density {kg/m3}
  836.8,                                  ! Specific Heat {J/kg-K}
  0.9,                                    ! Thermal Absorptance
  0.7,                                    ! Solar Absorptance
  0.7;                                    ! Visible Absorptance

OS:Material,
  {38771bf3-9693-44a7-ae68-a4dfe55471bd}, ! Handle
  1/2IN Gypsum,                           ! Name
  Smooth,                                 ! Roughness
  0.01271,                                ! Thickness {m}
  0.16,                                   ! Conductivity {W/m-K}
  784.9,                                  ! Density {kg/m3}
  830,                                    ! Specific Heat {J/kg-K}
  0.9,                                    ! Thermal Absorptance
  0.92,                                   ! Solar Absorptance
  0.92;                                   ! Visible Absorptance

OS:ComponentCost:LineItem,
  {66052f3b-103c-42ec-8e98-72500b7f5652}, ! Handle
  AEDG-SmOffice 5B Roof Attic and Other,  ! Name
  ,                                       ! Type
  Construction,                           ! Line Item Type
  AEDG-SmOffice 5B Roof Attic and Other,  ! Item Name
  ,                                       ! Object End Use Key
  ,                                       ! Quantity {dimensionless}
  34.757,                                 ! Material Cost {$}
  CostPerArea;                            ! Material Cost Units

