
OS:Version,
  {2959200b-284b-48b2-bf0f-85f93a7fa981}, ! Handle
  0.9.3;                                  ! Version Identifier

OS:Material,
  {fcf6a50e-593a-44f2-8b95-3f36c7302067}, ! Handle
  AtticFloor Insulation [1],              ! Name
  MediumRough,                            ! Roughness
  0.303719,                               ! Thickness {m}
  0.049,                                  ! Conductivity {W/m-K}
  265,                                    ! Density {kg/m3}
  836.8,                                  ! Specific Heat {J/kg-K}
  0.9,                                    ! Thermal Absorptance
  0.7,                                    ! Solar Absorptance
  0.7;                                    ! Visible Absorptance

OS:Material,
  {643de04d-b727-472c-9399-d02639dc8baf}, ! Handle
  1/2IN Gypsum Top,                       ! Name
  Smooth,                                 ! Roughness
  0.01271,                                ! Thickness {m}
  0.16,                                   ! Conductivity {W/m-K}
  784.9,                                  ! Density {kg/m3}
  830,                                    ! Specific Heat {J/kg-K}
  0.9,                                    ! Thermal Absorptance
  0.92,                                   ! Solar Absorptance
  0.92;                                   ! Visible Absorptance

OS:Material,
  {70030ddc-75d6-4002-a972-cccfef62892d}, ! Handle
  1/2IN Gypsum Bottom,                    ! Name
  Smooth,                                 ! Roughness
  0.01271,                                ! Thickness {m}
  0.16,                                   ! Conductivity {W/m-K}
  784.9,                                  ! Density {kg/m3}
  830,                                    ! Specific Heat {J/kg-K}
  0.9,                                    ! Thermal Absorptance
  0.92,                                   ! Solar Absorptance
  0.92;                                   ! Visible Absorptance

OS:ComponentCost:LineItem,
  {530313e0-91a3-4f4a-9f22-d53acab6b088}, ! Handle
  90.1-2004 Res 2A Attic Floor,           ! Name
  ,                                       ! Type
  Construction,                           ! Line Item Type
  90.1-2004 Res 2A Attic Floor,           ! Item Name
  ,                                       ! Object End Use Key
  ,                                       ! Quantity {dimensionless}
  35.009,                                 ! Material Cost {$}
  CostPerArea;                            ! Material Cost Units

OS:Construction,
  {2be26dd0-e0b3-4569-b563-b66c473e44d0}, ! Handle
  90.1-2004 Res 2A Attic Floor,           ! Name
  ,                                       ! Surface Rendering Name
  {643de04d-b727-472c-9399-d02639dc8baf}, ! Layer 1
  {fcf6a50e-593a-44f2-8b95-3f36c7302067}, ! Layer 2
  {70030ddc-75d6-4002-a972-cccfef62892d}; ! Layer 3

