
OS:Version,
  {2998cf88-e1bf-45a4-83bc-24d3076c55a7}, !- Handle
  1.1.0;                                  !- Version Identifier

OS:Construction,
  {56643fd9-1dd3-4d2e-afdd-8ea2a4bf23c4}, !- Handle
  Dbl LoE (e3=.1) Clr 3mm/13mm Air,       !- Name
  ,                                       !- Surface Rendering Name
  {6f711f67-d60b-4ff3-b787-d0f848343ed7}, !- Layer 1
  {cb925736-57e1-4354-9ff7-094664f1d370}, !- Layer 2
  {26dedfa2-b606-4c48-9ec4-f3b67fc80eab}; !- Layer 3

OS:WindowMaterial:Glazing,
  {6f711f67-d60b-4ff3-b787-d0f848343ed7}, !- Handle
  CLEAR 3MM,                              !- Name
  SpectralAverage,                        !- Optical Data Type
  ,                                       !- Window Glass Spectral Data Set Name
  0.003,                                  !- Thickness {m}
  0.837,                                  !- Solar Transmittance at Normal Incidence
  0.075,                                  !- Front Side Solar Reflectance at Normal Incidence
  0.075,                                  !- Back Side Solar Reflectance at Normal Incidence
  0.898,                                  !- Visible Transmittance at Normal Incidence
  0.081,                                  !- Front Side Visible Reflectance at Normal Incidence
  0.081,                                  !- Back Side Visible Reflectance at Normal Incidence
  0,                                      !- Infrared Transmittance at Normal Incidence
  0.84,                                   !- Front Side Infrared Hemispherical Emissivity
  0.84,                                   !- Back Side Infrared Hemispherical Emissivity
  0.9;                                    !- Conductivity {W/m-K}

OS:WindowMaterial:Gas,
  {cb925736-57e1-4354-9ff7-094664f1d370}, !- Handle
  AIR 13MM,                               !- Name
  Air,                                    !- Gas Type
  0.0127;                                 !- Thickness {m}

OS:WindowMaterial:Glazing,
  {26dedfa2-b606-4c48-9ec4-f3b67fc80eab}, !- Handle
  LoE CLEAR 3MM Rev,                      !- Name
  SpectralAverage,                        !- Optical Data Type
  ,                                       !- Window Glass Spectral Data Set Name
  0.003,                                  !- Thickness {m}
  0.63,                                   !- Solar Transmittance at Normal Incidence
  0.22,                                   !- Front Side Solar Reflectance at Normal Incidence
  0.19,                                   !- Back Side Solar Reflectance at Normal Incidence
  0.85,                                   !- Visible Transmittance at Normal Incidence
  0.079,                                  !- Front Side Visible Reflectance at Normal Incidence
  0.056,                                  !- Back Side Visible Reflectance at Normal Incidence
  0,                                      !- Infrared Transmittance at Normal Incidence
  0.1,                                    !- Front Side Infrared Hemispherical Emissivity
  0.84,                                   !- Back Side Infrared Hemispherical Emissivity
  0.9;                                    !- Conductivity {W/m-K}

