
OS:Version,
  {8fb4987d-8aef-41d8-bdc9-81e5548f816d}, ! Handle
  0.9.3;                                  ! Version Identifier

OS:Material,
  {0226aa88-ec82-4526-99e3-005ca7841ddd}, ! Handle
  MAT-CC05 4 HW CONCRETE,                 ! Name
  Rough,                                  ! Roughness
  0.1016,                                 ! Thickness {m}
  1.311,                                  ! Conductivity {W/m-K}
  2240,                                   ! Density {kg/m3}
  836.8,                                  ! Specific Heat {J/kg-K}
  0.9,                                    ! Thermal Absorptance
  0.7,                                    ! Solar Absorptance
  0.7;                                    ! Visible Absorptance

OS:ComponentCost:LineItem,
  {5990ddf7-14e6-4ee7-b334-a62bad2101e4}, ! Handle
  Title 24-2008 Nonres 8 Ext Slab Unheated - 4in Slab with Carpet, ! Name
  ,                                       ! Type
  Construction,                           ! Line Item Type
  Title 24-2008 Nonres 8 Ext Slab Unheated - 4in Slab with Carpet, ! Item Name
  ,                                       ! Object End Use Key
  ,                                       ! Quantity {dimensionless}
  45.52,                                  ! Material Cost {$}
  CostPerArea;                            ! Material Cost Units

OS:Material:NoMass,
  {85205d22-57ad-4c1c-8417-31ee65eee6a9}, ! Handle
  CP02 CARPET PAD,                        ! Name
  VeryRough,                              ! Roughness
  0.21648,                                ! Thermal Resistance {m2-K/W}
  0.9,                                    ! Thermal Absorptance
  0.7,                                    ! Solar Absorptance
  0.8;                                    ! Visible Absorptance

OS:Construction,
  {879965fc-9930-4c1b-b9c8-18f87b2c9c7a}, ! Handle
  Title 24-2008 Nonres 8 Ext Slab Unheated - 4in Slab with Carpet, ! Name
  ,                                       ! Surface Rendering Name
  {0226aa88-ec82-4526-99e3-005ca7841ddd}, ! Layer 1
  {85205d22-57ad-4c1c-8417-31ee65eee6a9}; ! Layer 2

