
OS:Version,
  {a6cc582d-60b5-4b24-95b1-238d5a86a80e}, ! Handle
  0.9.3;                                  ! Version Identifier

OS:Construction,
  {ec1030f7-8212-431a-933e-fbd0dcf80a04}, ! Handle
  Title 24-2008 Nonres 8 Ext Slab Unheated - 4in Slab with Carpet, ! Name
  ,                                       ! Surface Rendering Name
  {0d2732d3-1eb4-4cbe-942d-19f96d4d9f84}, ! Layer 1
  {cc3db643-006d-4c7b-a154-fb2fc4e71878}; ! Layer 2

OS:Material,
  {0d2732d3-1eb4-4cbe-942d-19f96d4d9f84}, ! Handle
  MAT-CC05 4 HW CONCRETE,                 ! Name
  Rough,                                  ! Roughness
  0.1016,                                 ! Thickness {m}
  1.311,                                  ! Conductivity {W/m-K}
  2240,                                   ! Density {kg/m3}
  836.8,                                  ! Specific Heat {J/kg-K}
  0.9,                                    ! Thermal Absorptance
  0.7,                                    ! Solar Absorptance
  0.7;                                    ! Visible Absorptance

OS:Material:NoMass,
  {cc3db643-006d-4c7b-a154-fb2fc4e71878}, ! Handle
  CP02 CARPET PAD,                        ! Name
  VeryRough,                              ! Roughness
  0.21648,                                ! Thermal Resistance {m2-K/W}
  0.9,                                    ! Thermal Absorptance
  0.7,                                    ! Solar Absorptance
  0.8;                                    ! Visible Absorptance

OS:ComponentCost:LineItem,
  {ec2f01d7-cc65-4801-9825-0cd37826a0ab}, ! Handle
  Title 24-2008 Nonres 8 Ext Slab Unheated - 4in Slab with Carpet, ! Name
  ,                                       ! Type
  Construction,                           ! Line Item Type
  Title 24-2008 Nonres 8 Ext Slab Unheated - 4in Slab with Carpet, ! Item Name
  ,                                       ! Object End Use Key
  ,                                       ! Quantity {dimensionless}
  45.52,                                  ! Material Cost {$}
  CostPerArea;                            ! Material Cost Units

OS:ComponentData,
  {f2e59635-1490-452b-addb-d68e2fa1af38}, ! Handle
  Component Data 1,                       ! Name
  {05545470-e339-4c18-8098-83412dcc806c}, ! UUID
  {ae2d103d-517c-4155-85e9-9c0acc4ac485}, ! Version UUID
  1363982046,                             ! Creation Timestamp
  1363982046,                             ! Version Timestamp
  {ec1030f7-8212-431a-933e-fbd0dcf80a04}, ! Name of Object 1
  {0d2732d3-1eb4-4cbe-942d-19f96d4d9f84}, ! Name of Object 2
  {cc3db643-006d-4c7b-a154-fb2fc4e71878}, ! Name of Object 3
  {ec2f01d7-cc65-4801-9825-0cd37826a0ab}; ! Name of Object 4

