
OS:Version,
  {0dbd6c18-61ca-4f3d-b699-1ec03cdb6d43}, ! Handle
  0.9.3;                                  ! Version Identifier

OS:Material,
  {ef6d8ccd-4298-4e3f-966c-7de15a0a60c8}, ! Handle
  Roof Insulation [1],                    ! Name
  MediumRough,                            ! Roughness
  0.123533,                               ! Thickness {m}
  0.049,                                  ! Conductivity {W/m-K}
  265,                                    ! Density {kg/m3}
  836.8,                                  ! Specific Heat {J/kg-K}
  0.9,                                    ! Thermal Absorptance
  0.7,                                    ! Solar Absorptance
  0.7;                                    ! Visible Absorptance

OS:Construction,
  {593a53d8-abed-43a6-9508-c11c6f55b5c8}, ! Handle
  90.1-2001 Nonres B19 Roof Metal Building, ! Name
  ,                                       ! Surface Rendering Name
  {4071fd2b-a876-4973-ab4b-2f7f5ace41e6}, ! Layer 1
  {ef6d8ccd-4298-4e3f-966c-7de15a0a60c8}; ! Layer 2

OS:Material,
  {4071fd2b-a876-4973-ab4b-2f7f5ace41e6}, ! Handle
  Metal Roofing,                          ! Name
  MediumSmooth,                           ! Roughness
  0.001524,                               ! Thickness {m}
  45.006,                                 ! Conductivity {W/m-K}
  7680,                                   ! Density {kg/m3}
  418.4,                                  ! Specific Heat {J/kg-K}
  0.9,                                    ! Thermal Absorptance
  0.7,                                    ! Solar Absorptance
  0.3;                                    ! Visible Absorptance

OS:ComponentCost:LineItem,
  {006c8a51-c9f6-4968-9d13-95e03ea14fee}, ! Handle
  90.1-2001 Nonres B19 Roof Metal Building, ! Name
  ,                                       ! Type
  Construction,                           ! Line Item Type
  90.1-2001 Nonres B19 Roof Metal Building, ! Item Name
  ,                                       ! Object End Use Key
  ,                                       ! Quantity {dimensionless}
  38.206,                                 ! Material Cost {$}
  CostPerArea;                            ! Material Cost Units

