
OS:Version,
  {8f3e1954-3455-4241-8fe3-2d8c78ea574f}, ! Handle
  0.9.3;                                  ! Version Identifier

OS:Construction,
  {c78e8db0-5bf0-4eff-84dc-29576d6b9375}, ! Handle
  AEDG K12 Nonres 1A Window Fixed,        ! Name
  ,                                       ! Surface Rendering Name
  {0f1ba7f6-3b2f-4a6d-901c-e3d73e7ebc0b}; ! Layer 1

OS:WindowMaterial:Glazing,
  {0f1ba7f6-3b2f-4a6d-901c-e3d73e7ebc0b}, ! Handle
  Theoretical Glass [245],                ! Name
  SpectralAverage,                        ! Optical Data Type
  ,                                       ! Window Glass Spectral Data Set Name
  0.003,                                  ! Thickness {m}
  0.425879,                               ! Solar Transmittance at Normal Incidence
  0.524121,                               ! Front Side Solar Reflectance at Normal Incidence
  0.524121,                               ! Back Side Solar Reflectance at Normal Incidence
  0.439975,                               ! Visible Transmittance at Normal Incidence
  0.510025,                               ! Front Side Visible Reflectance at Normal Incidence
  0.510025,                               ! Back Side Visible Reflectance at Normal Incidence
  0,                                      ! Infrared Transmittance at Normal Incidence
  0.999,                                  ! Front Side Infrared Hemispherical Emissivity
  0.999,                                  ! Back Side Infrared Hemispherical Emissivity
  3.36874;                                ! Conductivity {W/m-K}

OS:ComponentCost:LineItem,
  {c398668d-24ed-4613-85b0-5cd2873fcb13}, ! Handle
  AEDG K12 Nonres 1A Window Fixed,        ! Name
  ,                                       ! Type
  Construction,                           ! Line Item Type
  AEDG K12 Nonres 1A Window Fixed,        ! Item Name
  ,                                       ! Object End Use Key
  ,                                       ! Quantity {dimensionless}
  486.627,                                ! Material Cost {$}
  CostPerArea;                            ! Material Cost Units

OS:ComponentData,
  {616517d6-d561-41b7-9b3c-2da6b409018b}, ! Handle
  Component Data 1,                       ! Name
  {1b31cdf4-876d-4d9e-8df0-edf9491669e7}, ! UUID
  {5894df1f-a18a-4f98-8124-b90452497a80}, ! Version UUID
  1363981884,                             ! Creation Timestamp
  1363981884,                             ! Version Timestamp
  {c78e8db0-5bf0-4eff-84dc-29576d6b9375}, ! Name of Object 1
  {0f1ba7f6-3b2f-4a6d-901c-e3d73e7ebc0b}, ! Name of Object 2
  {c398668d-24ed-4613-85b0-5cd2873fcb13}; ! Name of Object 3

