
OS:Version,
  {0290fb1d-7437-4e18-8fce-d23367616e97}, ! Handle
  0.9.3;                                  ! Version Identifier

OS:WindowMaterial:Glazing,
  {fc6957cf-3b5d-4939-8167-59ab17047376}, ! Handle
  Theoretical Glass [245],                ! Name
  SpectralAverage,                        ! Optical Data Type
  ,                                       ! Window Glass Spectral Data Set Name
  0.003,                                  ! Thickness {m}
  0.425879,                               ! Solar Transmittance at Normal Incidence
  0.524121,                               ! Front Side Solar Reflectance at Normal Incidence
  0.524121,                               ! Back Side Solar Reflectance at Normal Incidence
  0.439975,                               ! Visible Transmittance at Normal Incidence
  0.510025,                               ! Front Side Visible Reflectance at Normal Incidence
  0.510025,                               ! Back Side Visible Reflectance at Normal Incidence
  0,                                      ! Infrared Transmittance at Normal Incidence
  0.999,                                  ! Front Side Infrared Hemispherical Emissivity
  0.999,                                  ! Back Side Infrared Hemispherical Emissivity
  3.36874;                                ! Conductivity {W/m-K}

OS:ComponentCost:LineItem,
  {8e8a140e-2e9d-4ca4-a269-c8c27d3b3a22}, ! Handle
  AEDG K12 Nonres 1A Window Fixed,        ! Name
  ,                                       ! Type
  Construction,                           ! Line Item Type
  AEDG K12 Nonres 1A Window Fixed,        ! Item Name
  ,                                       ! Object End Use Key
  ,                                       ! Quantity {dimensionless}
  486.627,                                ! Material Cost {$}
  CostPerArea;                            ! Material Cost Units

OS:Construction,
  {84153671-0a90-4b52-9ef7-ab12bd473dc2}, ! Handle
  AEDG K12 Nonres 1A Window Fixed,        ! Name
  ,                                       ! Surface Rendering Name
  {fc6957cf-3b5d-4939-8167-59ab17047376}; ! Layer 1

