
OS:Version,
  {4bc3c878-b196-4750-8617-b23008706d2a}, ! Handle
  0.9.3;                                  ! Version Identifier

OS:Material,
  {cf48a68a-697d-4a77-857c-d53fbe35ea17}, ! Handle
  1/2IN Gypsum,                           ! Name
  Smooth,                                 ! Roughness
  0.01271,                                ! Thickness {m}
  0.16,                                   ! Conductivity {W/m-K}
  784.9,                                  ! Density {kg/m3}
  830,                                    ! Specific Heat {J/kg-K}
  0.9,                                    ! Thermal Absorptance
  0.92,                                   ! Solar Absorptance
  0.92;                                   ! Visible Absorptance

OS:Material,
  {65e8c862-3332-444e-9297-76e70b07791e}, ! Handle
  8IN Concrete HW,                        ! Name
  MediumRough,                            ! Roughness
  0.2033,                                 ! Thickness {m}
  1.7296,                                 ! Conductivity {W/m-K}
  2243,                                   ! Density {kg/m3}
  837,                                    ! Specific Heat {J/kg-K}
  0.9,                                    ! Thermal Absorptance
  0.65,                                   ! Solar Absorptance
  0.65;                                   ! Visible Absorptance

OS:Material,
  {a1394923-d4ed-4de7-a3ff-8ac8e0fbaa38}, ! Handle
  Wall Insulation [44],                   ! Name
  MediumRough,                            ! Roughness
  0.110439,                               ! Thickness {m}
  0.0432,                                 ! Conductivity {W/m-K}
  91,                                     ! Density {kg/m3}
  837,                                    ! Specific Heat {J/kg-K}
  0.9,                                    ! Thermal Absorptance
  0.5,                                    ! Solar Absorptance
  0.5;                                    ! Visible Absorptance

OS:Material,
  {3db8c132-f49b-4d4b-a353-478f879a6ef3}, ! Handle
  1IN Stucco,                             ! Name
  Smooth,                                 ! Roughness
  0.0253,                                 ! Thickness {m}
  0.6918,                                 ! Conductivity {W/m-K}
  1858,                                   ! Density {kg/m3}
  837,                                    ! Specific Heat {J/kg-K}
  0.9,                                    ! Thermal Absorptance
  0.92,                                   ! Solar Absorptance
  0.92;                                   ! Visible Absorptance

OS:ComponentCost:LineItem,
  {4c88c184-fde5-429d-8976-dc8bb2c994b6}, ! Handle
  189.1-2009 Nonres 8A Ext Wall Mass,     ! Name
  ,                                       ! Type
  Construction,                           ! Line Item Type
  189.1-2009 Nonres 8A Ext Wall Mass,     ! Item Name
  ,                                       ! Object End Use Key
  ,                                       ! Quantity {dimensionless}
  75.386,                                 ! Material Cost {$}
  CostPerArea;                            ! Material Cost Units

OS:Construction,
  {c0939495-9460-4379-a30e-178012421735}, ! Handle
  189.1-2009 Nonres 8A Ext Wall Mass,     ! Name
  ,                                       ! Surface Rendering Name
  {3db8c132-f49b-4d4b-a353-478f879a6ef3}, ! Layer 1
  {65e8c862-3332-444e-9297-76e70b07791e}, ! Layer 2
  {a1394923-d4ed-4de7-a3ff-8ac8e0fbaa38}, ! Layer 3
  {cf48a68a-697d-4a77-857c-d53fbe35ea17}; ! Layer 4

