
! 
OS:Version,
  {8503bb35-3288-4176-9c41-752f3d976c4b}, !- Handle
  1.13.0;                                 !- Version Identifier


! 
OS:Material,
  {f0de2f7e-ceb2-4e30-82f5-38ec930b86f0}, !- Handle
  Aislamiento: SATE
WEBER: weber.therm placa EPS 20 (0.020 m)
R: 0.5 m2K/W,                             !- Name
  MediumRough,                                 !- Roughness
  0.02,                                    !- Thickness {m}
  0.037,                                    !- Conductivity {W/m-K}
  15.0,                                    !- Density {kg/m3}
  800.0,                                    !- Specific Heat {J/kg-K}
  0.9,                                    !- Thermal Absorptance
  0.6,                                    !- Solar Absorptance
  0.6;                                    !- Visible Absorptance

