
OS:Version,
  {fa62dd16-e46d-4c5e-b659-edb8c0c02e87}, ! Handle
  0.9.3;                                  ! Version Identifier

OS:Construction,
  {d6d6fcef-1271-43c0-8838-78547f0166ca}, ! Handle
  90.1-2001 Res B19 Skylight without Curb, ! Name
  ,                                       ! Surface Rendering Name
  {2b623c3b-2aba-48ad-a31c-46687628d2f5}; ! Layer 1

OS:WindowMaterial:Glazing,
  {2b623c3b-2aba-48ad-a31c-46687628d2f5}, ! Handle
  Theoretical Glass [100],                ! Name
  SpectralAverage,                        ! Optical Data Type
  ,                                       ! Window Glass Spectral Data Set Name
  0.003,                                  ! Thickness {m}
  0.471791,                               ! Solar Transmittance at Normal Incidence
  0.478209,                               ! Front Side Solar Reflectance at Normal Incidence
  0.478209,                               ! Back Side Solar Reflectance at Normal Incidence
  0.489393,                               ! Visible Transmittance at Normal Incidence
  0.460607,                               ! Front Side Visible Reflectance at Normal Incidence
  0.460607,                               ! Back Side Visible Reflectance at Normal Incidence
  0,                                      ! Infrared Transmittance at Normal Incidence
  0.9,                                    ! Front Side Infrared Hemispherical Emissivity
  0.9,                                    ! Back Side Infrared Hemispherical Emissivity
  0.0214499;                              ! Conductivity {W/m-K}

OS:ComponentCost:LineItem,
  {e17fea50-944e-44c1-b0ee-194a76c9e9c5}, ! Handle
  90.1-2001 Res B19 Skylight without Curb, ! Name
  ,                                       ! Type
  Construction,                           ! Line Item Type
  90.1-2001 Res B19 Skylight without Curb, ! Item Name
  ,                                       ! Object End Use Key
  ,                                       ! Quantity {dimensionless}
  549.465,                                ! Material Cost {$}
  CostPerArea;                            ! Material Cost Units

