
OS:Version,
  {9cdb77f0-a89c-4b3b-983b-f3bed789a34c}, ! Handle
  0.9.3;                                  ! Version Identifier

OS:Construction,
  {8475f8b0-35f3-4df7-9a04-54f4d8c8ecd6}, ! Handle
  189.1-2009 Res 1A Window Metal framing all other, ! Name
  ,                                       ! Surface Rendering Name
  {ac5c8238-2475-4fae-8a7a-3f8db85e93f4}; ! Layer 1

OS:WindowMaterial:Glazing,
  {ac5c8238-2475-4fae-8a7a-3f8db85e93f4}, ! Handle
  Theoretical Glass [167],                ! Name
  SpectralAverage,                        ! Optical Data Type
  ,                                       ! Window Glass Spectral Data Set Name
  0.003,                                  ! Thickness {m}
  0.237362,                               ! Solar Transmittance at Normal Incidence
  0.712638,                               ! Front Side Solar Reflectance at Normal Incidence
  0.712638,                               ! Back Side Solar Reflectance at Normal Incidence
  0.251212,                               ! Visible Transmittance at Normal Incidence
  0.698788,                               ! Front Side Visible Reflectance at Normal Incidence
  0.698788,                               ! Back Side Visible Reflectance at Normal Incidence
  0,                                      ! Infrared Transmittance at Normal Incidence
  0.985,                                  ! Front Side Infrared Hemispherical Emissivity
  0.985,                                  ! Back Side Infrared Hemispherical Emissivity
  2.10728;                                ! Conductivity {W/m-K}

OS:ComponentCost:LineItem,
  {e0a81a67-a136-433b-a30d-c70b4a376c95}, ! Handle
  189.1-2009 Res 1A Window Metal framing all other, ! Name
  ,                                       ! Type
  Construction,                           ! Line Item Type
  189.1-2009 Res 1A Window Metal framing all other, ! Item Name
  ,                                       ! Object End Use Key
  ,                                       ! Quantity {dimensionless}
  534.616,                                ! Material Cost {$}
  CostPerArea;                            ! Material Cost Units

