
OS:Version,
  {dc2d2e87-b303-4729-8846-67bab6562453}, ! Handle
  0.9.3;                                  ! Version Identifier

OS:Material,
  {bbd8f86f-1f3b-47f8-85ba-326e3f9ad45d}, ! Handle
  Wood Shingles,                          ! Name
  VeryRough,                              ! Roughness
  0.0178,                                 ! Thickness {m}
  0.115,                                  ! Conductivity {W/m-K}
  513,                                    ! Density {kg/m3}
  1255,                                   ! Specific Heat {J/kg-K}
  0.9,                                    ! Thermal Absorptance
  0.78,                                   ! Solar Absorptance
  0.78;                                   ! Visible Absorptance

OS:Material,
  {00281a78-dec3-4ca5-bd56-9874f3a3fb53}, ! Handle
  1IN Wood Decking,                       ! Name
  MediumSmooth,                           ! Roughness
  0.0254,                                 ! Thickness {m}
  0.1211,                                 ! Conductivity {W/m-K}
  593,                                    ! Density {kg/m3}
  2510,                                   ! Specific Heat {J/kg-K}
  0.9,                                    ! Thermal Absorptance
  0.78,                                   ! Solar Absorptance
  0.78;                                   ! Visible Absorptance

OS:Material,
  {3fb7160a-f5c1-4234-b3ec-f8b86dc34166}, ! Handle
  1/2IN Gypsum,                           ! Name
  Smooth,                                 ! Roughness
  0.01271,                                ! Thickness {m}
  0.16,                                   ! Conductivity {W/m-K}
  784.9,                                  ! Density {kg/m3}
  830,                                    ! Specific Heat {J/kg-K}
  0.9,                                    ! Thermal Absorptance
  0.92,                                   ! Solar Absorptance
  0.92;                                   ! Visible Absorptance

OS:Construction,
  {91931422-fd7d-4593-9d94-b5a824ee9e7b}, ! Handle
  90.1-2004 Res 3A Roof Attic and Other,  ! Name
  ,                                       ! Surface Rendering Name
  {bbd8f86f-1f3b-47f8-85ba-326e3f9ad45d}, ! Layer 1
  {00281a78-dec3-4ca5-bd56-9874f3a3fb53}, ! Layer 2
  {618cb125-4cee-43ff-a49c-92559453eac5}, ! Layer 3
  {3fb7160a-f5c1-4234-b3ec-f8b86dc34166}; ! Layer 4

OS:Material,
  {618cb125-4cee-43ff-a49c-92559453eac5}, ! Handle
  Roof Insulation [5],                    ! Name
  MediumRough,                            ! Roughness
  0.286906,                               ! Thickness {m}
  0.049,                                  ! Conductivity {W/m-K}
  265,                                    ! Density {kg/m3}
  836.8,                                  ! Specific Heat {J/kg-K}
  0.9,                                    ! Thermal Absorptance
  0.7,                                    ! Solar Absorptance
  0.7;                                    ! Visible Absorptance

OS:ComponentCost:LineItem,
  {441a777d-d6a1-4ae2-96b1-7968a035cab9}, ! Handle
  90.1-2004 Res 3A Roof Attic and Other,  ! Name
  ,                                       ! Type
  Construction,                           ! Line Item Type
  90.1-2004 Res 3A Roof Attic and Other,  ! Item Name
  ,                                       ! Object End Use Key
  ,                                       ! Quantity {dimensionless}
  34.757,                                 ! Material Cost {$}
  CostPerArea;                            ! Material Cost Units

