
OS:Version,
  {5fde33e2-c497-425b-92de-911cfe908e5e}, ! Handle
  0.9.3;                                  ! Version Identifier

OS:Construction,
  {470eb802-fc9b-4ba1-a23c-84c140675cc0}, ! Handle
  90.1 Windows Window Fixed 2315 Brk-GrnMpr-Std-Clr, ! Name
  ,                                       ! Surface Rendering Name
  {22d1a68e-f9ad-4bd4-b50e-936fa6507567}; ! Layer 1

OS:WindowMaterial:Glazing,
  {22d1a68e-f9ad-4bd4-b50e-936fa6507567}, ! Handle
  Theoretical Glass [428],                ! Name
  SpectralAverage,                        ! Optical Data Type
  ,                                       ! Window Glass Spectral Data Set Name
  0.003,                                  ! Thickness {m}
  0.322965,                               ! Solar Transmittance at Normal Incidence
  0.627035,                               ! Front Side Solar Reflectance at Normal Incidence
  0.627035,                               ! Back Side Solar Reflectance at Normal Incidence
  0.3507,                                 ! Visible Transmittance at Normal Incidence
  0.5993,                                 ! Front Side Visible Reflectance at Normal Incidence
  0.5993,                                 ! Back Side Visible Reflectance at Normal Incidence
  0,                                      ! Infrared Transmittance at Normal Incidence
  0.9,                                    ! Front Side Infrared Hemispherical Emissivity
  0.9,                                    ! Back Side Infrared Hemispherical Emissivity
  0.0236463;                              ! Conductivity {W/m-K}

OS:ComponentCost:LineItem,
  {9b198353-e80a-40ad-af45-ccd784f8e98a}, ! Handle
  90.1 Windows Window Fixed 2315 Brk-GrnMpr-Std-Clr, ! Name
  ,                                       ! Type
  Construction,                           ! Line Item Type
  90.1 Windows Window Fixed 2315 Brk-GrnMpr-Std-Clr, ! Item Name
  ,                                       ! Object End Use Key
  ,                                       ! Quantity {dimensionless}
  0,                                      ! Material Cost {$}
  CostPerArea;                            ! Material Cost Units

