
OS:Version,
  {8c2f548c-3ca0-4cef-9fa9-aefb1ece4d91}, ! Handle
  0.9.3;                                  ! Version Identifier

OS:Construction,
  {d5fcbe9d-fdfa-4a4c-bc41-9b02618e0eb2}, ! Handle
  90.1-2007 Res 7A Window Nonmetal framing, ! Name
  ,                                       ! Surface Rendering Name
  {5ac68e61-5bb2-4077-84e0-4687349f374d}; ! Layer 1

OS:WindowMaterial:Glazing,
  {5ac68e61-5bb2-4077-84e0-4687349f374d}, ! Handle
  Theoretical Glass [188],                ! Name
  SpectralAverage,                        ! Optical Data Type
  ,                                       ! Window Glass Spectral Data Set Name
  0.003,                                  ! Thickness {m}
  0.445058,                               ! Solar Transmittance at Normal Incidence
  0.504942,                               ! Front Side Solar Reflectance at Normal Incidence
  0.504942,                               ! Back Side Solar Reflectance at Normal Incidence
  0.450308,                               ! Visible Transmittance at Normal Incidence
  0.499692,                               ! Front Side Visible Reflectance at Normal Incidence
  0.499692,                               ! Back Side Visible Reflectance at Normal Incidence
  0,                                      ! Infrared Transmittance at Normal Incidence
  0.9,                                    ! Front Side Infrared Hemispherical Emissivity
  0.9,                                    ! Back Side Infrared Hemispherical Emissivity
  0.00881723;                             ! Conductivity {W/m-K}

OS:ComponentCost:LineItem,
  {952eeea9-4e3d-4ce5-a985-3c9645940ebd}, ! Handle
  90.1-2007 Res 7A Window Nonmetal framing, ! Name
  ,                                       ! Type
  Construction,                           ! Line Item Type
  90.1-2007 Res 7A Window Nonmetal framing, ! Item Name
  ,                                       ! Object End Use Key
  ,                                       ! Quantity {dimensionless}
  508.362,                                ! Material Cost {$}
  CostPerArea;                            ! Material Cost Units

