
OS:Version,
  {9a73ea95-b8e4-4eeb-8959-fef80491b536}, ! Handle
  0.9.3;                                  ! Version Identifier

OS:Construction,
  {4ce01226-81a4-443b-9d96-40cc8382df2c}, ! Handle
  90.1-2007 Nonres 5B Window Metal framing entrance door, ! Name
  ,                                       ! Surface Rendering Name
  {23f3134e-1eff-4350-8ce4-19a77a182e50}; ! Layer 1

OS:WindowMaterial:Glazing,
  {23f3134e-1eff-4350-8ce4-19a77a182e50}, ! Handle
  Theoretical Glass [185],                ! Name
  SpectralAverage,                        ! Optical Data Type
  ,                                       ! Window Glass Spectral Data Set Name
  0.003,                                  ! Thickness {m}
  0.39034,                                ! Solar Transmittance at Normal Incidence
  0.55966,                                ! Front Side Solar Reflectance at Normal Incidence
  0.55966,                                ! Back Side Solar Reflectance at Normal Incidence
  0.507883,                               ! Visible Transmittance at Normal Incidence
  0.442117,                               ! Front Side Visible Reflectance at Normal Incidence
  0.442117,                               ! Back Side Visible Reflectance at Normal Incidence
  0,                                      ! Infrared Transmittance at Normal Incidence
  0.9,                                    ! Front Side Infrared Hemispherical Emissivity
  0.9,                                    ! Back Side Infrared Hemispherical Emissivity
  0.0457051;                              ! Conductivity {W/m-K}

OS:ComponentCost:LineItem,
  {1ec62475-ae8a-4530-b751-8e8257d924e0}, ! Handle
  90.1-2007 Nonres 5B Window Metal framing entrance door, ! Name
  ,                                       ! Type
  Construction,                           ! Line Item Type
  90.1-2007 Nonres 5B Window Metal framing entrance door, ! Item Name
  ,                                       ! Object End Use Key
  ,                                       ! Quantity {dimensionless}
  512.02,                                 ! Material Cost {$}
  CostPerArea;                            ! Material Cost Units

OS:ComponentData,
  {52b5fb9b-4e5d-4972-89bc-54cc1f124721}, ! Handle
  Component Data 1,                       ! Name
  {10d38d7d-f61c-4b9d-86d9-bf0fc2c56bc0}, ! UUID
  {b850b017-2708-4e3c-8672-6421276cb443}, ! Version UUID
  1363981810,                             ! Creation Timestamp
  1363981810,                             ! Version Timestamp
  {4ce01226-81a4-443b-9d96-40cc8382df2c}, ! Name of Object 1
  {23f3134e-1eff-4350-8ce4-19a77a182e50}, ! Name of Object 2
  {1ec62475-ae8a-4530-b751-8e8257d924e0}; ! Name of Object 3

