
OS:Version,
  {ea0eb938-d5c0-4ae5-846f-6baddea6116d}, ! Handle
  0.9.3;                                  ! Version Identifier

OS:Construction,
  {3790dc5d-297b-4a6b-b529-b20c58b053af}, ! Handle
  90.1-2001 Res B5 Ext Slab Unheated - 4in Slab without Carpet, ! Name
  ,                                       ! Surface Rendering Name
  {e3a1e49a-9d8a-463a-a26d-c3950dfb49fc}; ! Layer 1

OS:Material,
  {e3a1e49a-9d8a-463a-a26d-c3950dfb49fc}, ! Handle
  MAT-CC05 4 HW CONCRETE,                 ! Name
  Rough,                                  ! Roughness
  0.1016,                                 ! Thickness {m}
  1.311,                                  ! Conductivity {W/m-K}
  2240,                                   ! Density {kg/m3}
  836.8,                                  ! Specific Heat {J/kg-K}
  0.9,                                    ! Thermal Absorptance
  0.7,                                    ! Solar Absorptance
  0.7;                                    ! Visible Absorptance

OS:ComponentCost:LineItem,
  {b0d5dcdd-ecf3-4dfd-b4a2-ce061ae737ae}, ! Handle
  90.1-2001 Res B5 Ext Slab Unheated - 4in Slab without Carpet, ! Name
  ,                                       ! Type
  Construction,                           ! Line Item Type
  90.1-2001 Res B5 Ext Slab Unheated - 4in Slab without Carpet, ! Item Name
  ,                                       ! Object End Use Key
  ,                                       ! Quantity {dimensionless}
  45.52,                                  ! Material Cost {$}
  CostPerArea;                            ! Material Cost Units

