
OS:Version,
  {96257b56-c7df-48c4-b021-ff68a81be413}, ! Handle
  0.9.3;                                  ! Version Identifier

OS:Material:NoMass,
  {92b73168-dc38-410b-b14a-4bfdbfa03011}, ! Handle
  CP02 CARPET PAD,                        ! Name
  VeryRough,                              ! Roughness
  0.21648,                                ! Thermal Resistance {m2-K/W}
  0.9,                                    ! Thermal Absorptance
  0.7,                                    ! Solar Absorptance
  0.8;                                    ! Visible Absorptance

OS:Material,
  {28f1c3f8-bb0e-4e49-a78e-800b0ac55889}, ! Handle
  MAT-CC05 8 HW CONCRETE,                 ! Name
  Rough,                                  ! Roughness
  0.20321,                                ! Thickness {m}
  1.311,                                  ! Conductivity {W/m-K}
  2240,                                   ! Density {kg/m3}
  836.8,                                  ! Specific Heat {J/kg-K}
  0.9,                                    ! Thermal Absorptance
  0.7,                                    ! Solar Absorptance
  0.7;                                    ! Visible Absorptance

OS:ComponentCost:LineItem,
  {db205ec6-0f7c-42f8-a5f7-298e4f7d9809}, ! Handle
  90.1-2001 Res B20 Ext Slab Unheated - 8in Slab with Carpet, ! Name
  ,                                       ! Type
  Construction,                           ! Line Item Type
  90.1-2001 Res B20 Ext Slab Unheated - 8in Slab with Carpet, ! Item Name
  ,                                       ! Object End Use Key
  ,                                       ! Quantity {dimensionless}
  45.52,                                  ! Material Cost {$}
  CostPerArea;                            ! Material Cost Units

OS:Construction,
  {6b699f4b-9b19-48c5-bc8d-c3711ddd4b39}, ! Handle
  90.1-2001 Res B20 Ext Slab Unheated - 8in Slab with Carpet, ! Name
  ,                                       ! Surface Rendering Name
  {28f1c3f8-bb0e-4e49-a78e-800b0ac55889}, ! Layer 1
  {92b73168-dc38-410b-b14a-4bfdbfa03011}; ! Layer 2

