
OS:Version,
  {223f3ac5-3068-481e-b79b-c4dc0aaae43b}, ! Handle
  0.9.3;                                  ! Version Identifier

OS:Construction,
  {21805dcc-cf70-4876-b1a8-28abf0d16ff0}, ! Handle
  90.1-1999 Nonres B2 Roof Metal Building, ! Name
  ,                                       ! Surface Rendering Name
  {e02dd12b-1dd5-4c5e-b9b5-78f85217c4ea}, ! Layer 1
  {b1d6de1a-a30f-4a4b-b407-8bbb9e7d9999}; ! Layer 2

OS:Material,
  {e02dd12b-1dd5-4c5e-b9b5-78f85217c4ea}, ! Handle
  Metal Roofing,                          ! Name
  MediumSmooth,                           ! Roughness
  0.001524,                               ! Thickness {m}
  45.006,                                 ! Conductivity {W/m-K}
  7680,                                   ! Density {kg/m3}
  418.4,                                  ! Specific Heat {J/kg-K}
  0.9,                                    ! Thermal Absorptance
  0.7,                                    ! Solar Absorptance
  0.3;                                    ! Visible Absorptance

OS:Material,
  {b1d6de1a-a30f-4a4b-b407-8bbb9e7d9999}, ! Handle
  Roof Insulation [1],                    ! Name
  MediumRough,                            ! Roughness
  0.123533,                               ! Thickness {m}
  0.049,                                  ! Conductivity {W/m-K}
  265,                                    ! Density {kg/m3}
  836.8,                                  ! Specific Heat {J/kg-K}
  0.9,                                    ! Thermal Absorptance
  0.7,                                    ! Solar Absorptance
  0.7;                                    ! Visible Absorptance

OS:ComponentCost:LineItem,
  {65d60ecf-a69f-45df-b050-1114a946495c}, ! Handle
  90.1-1999 Nonres B2 Roof Metal Building, ! Name
  ,                                       ! Type
  Construction,                           ! Line Item Type
  90.1-1999 Nonres B2 Roof Metal Building, ! Item Name
  ,                                       ! Object End Use Key
  ,                                       ! Quantity {dimensionless}
  38.206,                                 ! Material Cost {$}
  CostPerArea;                            ! Material Cost Units

