
OS:Version,
  {213d0e97-39bc-42a9-a461-870303309c5a}, ! Handle
  0.9.3;                                  ! Version Identifier

OS:Construction,
  {f984f5a9-41f3-44cc-84d4-fb87df201a81}, ! Handle
  90.1-1999 Nonres B2 Roof Metal Building, ! Name
  ,                                       ! Surface Rendering Name
  {40cbb284-c27c-452c-a7f8-7d61c5333dce}, ! Layer 1
  {58538893-83e6-4563-bf81-264af9137f7e}; ! Layer 2

OS:Material,
  {40cbb284-c27c-452c-a7f8-7d61c5333dce}, ! Handle
  Metal Roofing,                          ! Name
  MediumSmooth,                           ! Roughness
  0.001524,                               ! Thickness {m}
  45.006,                                 ! Conductivity {W/m-K}
  7680,                                   ! Density {kg/m3}
  418.4,                                  ! Specific Heat {J/kg-K}
  0.9,                                    ! Thermal Absorptance
  0.7,                                    ! Solar Absorptance
  0.3;                                    ! Visible Absorptance

OS:Material,
  {58538893-83e6-4563-bf81-264af9137f7e}, ! Handle
  Roof Insulation [1],                    ! Name
  MediumRough,                            ! Roughness
  0.123533,                               ! Thickness {m}
  0.049,                                  ! Conductivity {W/m-K}
  265,                                    ! Density {kg/m3}
  836.8,                                  ! Specific Heat {J/kg-K}
  0.9,                                    ! Thermal Absorptance
  0.7,                                    ! Solar Absorptance
  0.7;                                    ! Visible Absorptance

OS:ComponentCost:LineItem,
  {7d9c08fc-6efe-40aa-8a2b-df1ce7787a4a}, ! Handle
  90.1-1999 Nonres B2 Roof Metal Building, ! Name
  ,                                       ! Type
  Construction,                           ! Line Item Type
  90.1-1999 Nonres B2 Roof Metal Building, ! Item Name
  ,                                       ! Object End Use Key
  ,                                       ! Quantity {dimensionless}
  38.206,                                 ! Material Cost {$}
  CostPerArea;                            ! Material Cost Units

OS:ComponentData,
  {7b89b8ef-46ed-4db0-89eb-445d8002a908}, ! Handle
  Component Data 1,                       ! Name
  {22277d89-419b-4583-8294-0e71f6bb975a}, ! UUID
  {df1d6dda-2908-4cfa-abf2-804e31b3e00f}, ! Version UUID
  1363981041,                             ! Creation Timestamp
  1363981041,                             ! Version Timestamp
  {f984f5a9-41f3-44cc-84d4-fb87df201a81}, ! Name of Object 1
  {40cbb284-c27c-452c-a7f8-7d61c5333dce}, ! Name of Object 2
  {58538893-83e6-4563-bf81-264af9137f7e}, ! Name of Object 3
  {7d9c08fc-6efe-40aa-8a2b-df1ce7787a4a}; ! Name of Object 4

