
OS:Version,
  {a5bccaac-557e-45b2-ae07-c2a96bccfd5f}, ! Handle
  0.9.3;                                  ! Version Identifier

OS:Material:NoMass,
  {65f94716-6c46-4f0b-b17d-410dda84711d}, ! Handle
  CP02 CARPET PAD,                        ! Name
  VeryRough,                              ! Roughness
  0.21648,                                ! Thermal Resistance {m2-K/W}
  0.9,                                    ! Thermal Absorptance
  0.7,                                    ! Solar Absorptance
  0.8;                                    ! Visible Absorptance

OS:ComponentCost:LineItem,
  {81b76d70-88df-4f0a-95bf-58bb17fd1f58}, ! Handle
  189.1-2009 Res 1A Ext Slab Unheated - 8in Slab with Carpet, ! Name
  ,                                       ! Type
  Construction,                           ! Line Item Type
  189.1-2009 Res 1A Ext Slab Unheated - 8in Slab with Carpet, ! Item Name
  ,                                       ! Object End Use Key
  ,                                       ! Quantity {dimensionless}
  45.52,                                  ! Material Cost {$}
  CostPerArea;                            ! Material Cost Units

OS:Construction,
  {01e70c4a-c2cb-4e81-a285-596f4d1ac275}, ! Handle
  189.1-2009 Res 1A Ext Slab Unheated - 8in Slab with Carpet, ! Name
  ,                                       ! Surface Rendering Name
  {621e912a-568e-4d25-b48f-0fcaed2636a2}, ! Layer 1
  {65f94716-6c46-4f0b-b17d-410dda84711d}; ! Layer 2

OS:Material,
  {621e912a-568e-4d25-b48f-0fcaed2636a2}, ! Handle
  MAT-CC05 8 HW CONCRETE,                 ! Name
  Rough,                                  ! Roughness
  0.20321,                                ! Thickness {m}
  1.311,                                  ! Conductivity {W/m-K}
  2240,                                   ! Density {kg/m3}
  836.8,                                  ! Specific Heat {J/kg-K}
  0.9,                                    ! Thermal Absorptance
  0.7,                                    ! Solar Absorptance
  0.7;                                    ! Visible Absorptance

