
OS:Version,
  {1f2b321d-89e1-4b53-b16e-6b2dddbf2b5c}, ! Handle
  0.9.3;                                  ! Version Identifier

OS:Construction,
  {dbd2d460-b4a3-46db-a79c-d244edd18e2d}, ! Handle
  90.1-2001 Res B24 Ext Slab Unheated - 8in Slab with Carpet, ! Name
  ,                                       ! Surface Rendering Name
  {bffc19e4-23bd-4cce-9a22-406179d83d16}, ! Layer 1
  {ba34c40d-d6bd-4e3f-ab18-b8b9896e78a4}; ! Layer 2

OS:Material,
  {bffc19e4-23bd-4cce-9a22-406179d83d16}, ! Handle
  MAT-CC05 8 HW CONCRETE,                 ! Name
  Rough,                                  ! Roughness
  0.20321,                                ! Thickness {m}
  1.311,                                  ! Conductivity {W/m-K}
  2240,                                   ! Density {kg/m3}
  836.8,                                  ! Specific Heat {J/kg-K}
  0.9,                                    ! Thermal Absorptance
  0.7,                                    ! Solar Absorptance
  0.7;                                    ! Visible Absorptance

OS:Material:NoMass,
  {ba34c40d-d6bd-4e3f-ab18-b8b9896e78a4}, ! Handle
  CP02 CARPET PAD,                        ! Name
  VeryRough,                              ! Roughness
  0.21648,                                ! Thermal Resistance {m2-K/W}
  0.9,                                    ! Thermal Absorptance
  0.7,                                    ! Solar Absorptance
  0.8;                                    ! Visible Absorptance

OS:ComponentCost:LineItem,
  {2870fff0-5f6a-45a8-8d43-e234a1397530}, ! Handle
  90.1-2001 Res B24 Ext Slab Unheated - 8in Slab with Carpet, ! Name
  ,                                       ! Type
  Construction,                           ! Line Item Type
  90.1-2001 Res B24 Ext Slab Unheated - 8in Slab with Carpet, ! Item Name
  ,                                       ! Object End Use Key
  ,                                       ! Quantity {dimensionless}
  45.52,                                  ! Material Cost {$}
  CostPerArea;                            ! Material Cost Units

