
OS:Version,
  {a2cd0eff-44b1-470f-b582-e022d08dfb99}, ! Handle
  0.9.3;                                  ! Version Identifier

OS:Material,
  {d0fcd3e8-b5b0-4eda-b718-3b22c47ec8bf}, ! Handle
  1/2IN Gypsum,                           ! Name
  Smooth,                                 ! Roughness
  0.01271,                                ! Thickness {m}
  0.16,                                   ! Conductivity {W/m-K}
  784.9,                                  ! Density {kg/m3}
  830,                                    ! Specific Heat {J/kg-K}
  0.9,                                    ! Thermal Absorptance
  0.92,                                   ! Solar Absorptance
  0.92;                                   ! Visible Absorptance

OS:ComponentCost:LineItem,
  {927d56bf-c028-4cfb-843a-1d16e724984e}, ! Handle
  90.1-1999 Nonres B8 Ext Wall Steel-Framed, ! Name
  ,                                       ! Type
  Construction,                           ! Line Item Type
  90.1-1999 Nonres B8 Ext Wall Steel-Framed, ! Item Name
  ,                                       ! Object End Use Key
  ,                                       ! Quantity {dimensionless}
  87.08,                                  ! Material Cost {$}
  CostPerArea;                            ! Material Cost Units

OS:Construction,
  {0436d7e5-0a49-401a-9a55-6e0db9af92a2}, ! Handle
  90.1-1999 Nonres B8 Ext Wall Steel-Framed, ! Name
  ,                                       ! Surface Rendering Name
  {d1c6bb57-77a9-41a6-8dce-b15418e55946}, ! Layer 1
  {dfc8f1e9-81e0-4fa6-9194-046618ec5bbd}, ! Layer 2
  {d0fcd3e8-b5b0-4eda-b718-3b22c47ec8bf}; ! Layer 3

OS:Material:NoMass,
  {d1c6bb57-77a9-41a6-8dce-b15418e55946}, ! Handle
  MAT-SHEATH,                             ! Name
  Rough,                                  ! Roughness
  0.36256,                                ! Thermal Resistance {m2-K/W}
  0.9,                                    ! Thermal Absorptance
  0.7,                                    ! Solar Absorptance
  0.7;                                    ! Visible Absorptance

OS:Material,
  {dfc8f1e9-81e0-4fa6-9194-046618ec5bbd}, ! Handle
  Wall Insulation [1],                    ! Name
  MediumRough,                            ! Roughness
  0.0373223,                              ! Thickness {m}
  0.045,                                  ! Conductivity {W/m-K}
  265,                                    ! Density {kg/m3}
  836.8,                                  ! Specific Heat {J/kg-K}
  0.9,                                    ! Thermal Absorptance
  0.7,                                    ! Solar Absorptance
  0.7;                                    ! Visible Absorptance

