
OS:Version,
  {8d69646d-1c7e-423f-88cf-463b7fc25ae2}, ! Handle
  0.9.3;                                  ! Version Identifier

OS:Construction,
  {54f7695f-5b09-4101-9f38-0d8db37295bc}, ! Handle
  90.1-2001 Nonres B8 Skylight without Curb, ! Name
  ,                                       ! Surface Rendering Name
  {b727a5f2-b76b-4874-beca-0f8dd69e6076}; ! Layer 1

OS:WindowMaterial:Glazing,
  {b727a5f2-b76b-4874-beca-0f8dd69e6076}, ! Handle
  Theoretical Glass [17],                 ! Name
  SpectralAverage,                        ! Optical Data Type
  ,                                       ! Window Glass Spectral Data Set Name
  0.003,                                  ! Thickness {m}
  0.375972,                               ! Solar Transmittance at Normal Incidence
  0.574028,                               ! Front Side Solar Reflectance at Normal Incidence
  0.574028,                               ! Back Side Solar Reflectance at Normal Incidence
  0.41104,                                ! Visible Transmittance at Normal Incidence
  0.53896,                                ! Front Side Visible Reflectance at Normal Incidence
  0.53896,                                ! Back Side Visible Reflectance at Normal Incidence
  0,                                      ! Infrared Transmittance at Normal Incidence
  0.999,                                  ! Front Side Infrared Hemispherical Emissivity
  0.999,                                  ! Back Side Infrared Hemispherical Emissivity
  299.383;                                ! Conductivity {W/m-K}

OS:ComponentCost:LineItem,
  {14e1f743-0c93-4990-aa56-7c739f60d493}, ! Handle
  90.1-2001 Nonres B8 Skylight without Curb, ! Name
  ,                                       ! Type
  Construction,                           ! Line Item Type
  90.1-2001 Nonres B8 Skylight without Curb, ! Item Name
  ,                                       ! Object End Use Key
  ,                                       ! Quantity {dimensionless}
  486.627,                                ! Material Cost {$}
  CostPerArea;                            ! Material Cost Units

