
OS:Version,
  {beb0207c-e828-43c0-9049-564804ea8046}, ! Handle
  0.9.3;                                  ! Version Identifier

OS:Construction,
  {b031f093-d45b-4010-8e44-49911b1bc7eb}, ! Handle
  90.1-2001 Nonres B8 Skylight without Curb, ! Name
  ,                                       ! Surface Rendering Name
  {272f80f6-c7db-4609-be72-150d2bea206c}; ! Layer 1

OS:WindowMaterial:Glazing,
  {272f80f6-c7db-4609-be72-150d2bea206c}, ! Handle
  Theoretical Glass [17],                 ! Name
  SpectralAverage,                        ! Optical Data Type
  ,                                       ! Window Glass Spectral Data Set Name
  0.003,                                  ! Thickness {m}
  0.375972,                               ! Solar Transmittance at Normal Incidence
  0.574028,                               ! Front Side Solar Reflectance at Normal Incidence
  0.574028,                               ! Back Side Solar Reflectance at Normal Incidence
  0.41104,                                ! Visible Transmittance at Normal Incidence
  0.53896,                                ! Front Side Visible Reflectance at Normal Incidence
  0.53896,                                ! Back Side Visible Reflectance at Normal Incidence
  0,                                      ! Infrared Transmittance at Normal Incidence
  0.999,                                  ! Front Side Infrared Hemispherical Emissivity
  0.999,                                  ! Back Side Infrared Hemispherical Emissivity
  299.383;                                ! Conductivity {W/m-K}

OS:ComponentCost:LineItem,
  {9096346d-9ebd-4bf3-aa8f-42b867285405}, ! Handle
  90.1-2001 Nonres B8 Skylight without Curb, ! Name
  ,                                       ! Type
  Construction,                           ! Line Item Type
  90.1-2001 Nonres B8 Skylight without Curb, ! Item Name
  ,                                       ! Object End Use Key
  ,                                       ! Quantity {dimensionless}
  486.627,                                ! Material Cost {$}
  CostPerArea;                            ! Material Cost Units

OS:ComponentData,
  {b4a04bba-e35c-4f91-ae6d-3bd105394734}, ! Handle
  Component Data 1,                       ! Name
  {673aee91-a5b1-4812-aeae-7a910b8c1716}, ! UUID
  {ba2d5659-8698-4211-a2b4-d9a1e4ade405}, ! Version UUID
  1363981331,                             ! Creation Timestamp
  1363981331,                             ! Version Timestamp
  {b031f093-d45b-4010-8e44-49911b1bc7eb}, ! Name of Object 1
  {272f80f6-c7db-4609-be72-150d2bea206c}, ! Name of Object 2
  {9096346d-9ebd-4bf3-aa8f-42b867285405}; ! Name of Object 3

