
OS:Version,
  {efc144ed-9a89-45dd-b23e-66f6b219e2f9}, ! Handle
  0.9.3;                                  ! Version Identifier

OS:Construction,
  {1c205b1b-e0e2-4871-aaf5-108dde73567c}, ! Handle
  90.1-1999 Res B7 Ext Slab Unheated - 4in Slab with Carpet, ! Name
  ,                                       ! Surface Rendering Name
  {6bdadf98-ed97-4d80-ad06-596eecdb6094}, ! Layer 1
  {5063af35-57f4-4055-8130-b4de6a2f49ce}; ! Layer 2

OS:Material,
  {6bdadf98-ed97-4d80-ad06-596eecdb6094}, ! Handle
  MAT-CC05 4 HW CONCRETE,                 ! Name
  Rough,                                  ! Roughness
  0.1016,                                 ! Thickness {m}
  1.311,                                  ! Conductivity {W/m-K}
  2240,                                   ! Density {kg/m3}
  836.8,                                  ! Specific Heat {J/kg-K}
  0.9,                                    ! Thermal Absorptance
  0.7,                                    ! Solar Absorptance
  0.7;                                    ! Visible Absorptance

OS:Material:NoMass,
  {5063af35-57f4-4055-8130-b4de6a2f49ce}, ! Handle
  CP02 CARPET PAD,                        ! Name
  VeryRough,                              ! Roughness
  0.21648,                                ! Thermal Resistance {m2-K/W}
  0.9,                                    ! Thermal Absorptance
  0.7,                                    ! Solar Absorptance
  0.8;                                    ! Visible Absorptance

OS:ComponentCost:LineItem,
  {ae246e09-40e2-48e4-9cda-c0688f64ac84}, ! Handle
  90.1-1999 Res B7 Ext Slab Unheated - 4in Slab with Carpet, ! Name
  ,                                       ! Type
  Construction,                           ! Line Item Type
  90.1-1999 Res B7 Ext Slab Unheated - 4in Slab with Carpet, ! Item Name
  ,                                       ! Object End Use Key
  ,                                       ! Quantity {dimensionless}
  45.52,                                  ! Material Cost {$}
  CostPerArea;                            ! Material Cost Units

OS:ComponentData,
  {3d066d52-1598-483d-a618-c2f0fc1d5166}, ! Handle
  Component Data 1,                       ! Name
  {0c2f338a-176a-4d06-b416-2691a13fd9e7}, ! UUID
  {50a2034b-4a29-4cb8-a82e-2f156e1f365b}, ! Version UUID
  1363981192,                             ! Creation Timestamp
  1363981192,                             ! Version Timestamp
  {1c205b1b-e0e2-4871-aaf5-108dde73567c}, ! Name of Object 1
  {6bdadf98-ed97-4d80-ad06-596eecdb6094}, ! Name of Object 2
  {5063af35-57f4-4055-8130-b4de6a2f49ce}, ! Name of Object 3
  {ae246e09-40e2-48e4-9cda-c0688f64ac84}; ! Name of Object 4

