
OS:Version,
  {fb72b47e-7ceb-4356-b634-6d04263ac706}, ! Handle
  0.9.3;                                  ! Version Identifier

OS:Material,
  {16e8da90-4857-4b8f-8c0d-7a27bbead445}, ! Handle
  MAT-CC05 4 HW CONCRETE,                 ! Name
  Rough,                                  ! Roughness
  0.1016,                                 ! Thickness {m}
  1.311,                                  ! Conductivity {W/m-K}
  2240,                                   ! Density {kg/m3}
  836.8,                                  ! Specific Heat {J/kg-K}
  0.9,                                    ! Thermal Absorptance
  0.7,                                    ! Solar Absorptance
  0.7;                                    ! Visible Absorptance

OS:Construction,
  {5f64ae55-44d5-409d-a773-be100360255c}, ! Handle
  Title 24-2008 Nonres 12 Ext Slab Unheated - 4in Slab without Carpet, ! Name
  ,                                       ! Surface Rendering Name
  {16e8da90-4857-4b8f-8c0d-7a27bbead445}; ! Layer 1

OS:ComponentCost:LineItem,
  {8a352fa0-751a-402c-a090-1e61a94b1716}, ! Handle
  Title 24-2008 Nonres 12 Ext Slab Unheated - 4in Slab without Carpet, ! Name
  ,                                       ! Type
  Construction,                           ! Line Item Type
  Title 24-2008 Nonres 12 Ext Slab Unheated - 4in Slab without Carpet, ! Item Name
  ,                                       ! Object End Use Key
  ,                                       ! Quantity {dimensionless}
  45.52,                                  ! Material Cost {$}
  CostPerArea;                            ! Material Cost Units

