
OS:Version,
  {4c706595-e533-4e28-9e10-92fb3152691a}, ! Handle
  0.9.3;                                  ! Version Identifier

OS:Construction,
  {de83a9eb-48a2-476c-ae79-ad4b5012b236}, ! Handle
  Title 24-2008 Nonres 12 Ext Slab Unheated - 4in Slab without Carpet, ! Name
  ,                                       ! Surface Rendering Name
  {60d7e572-de6a-49ec-a5c1-82cc753e7cf6}; ! Layer 1

OS:Material,
  {60d7e572-de6a-49ec-a5c1-82cc753e7cf6}, ! Handle
  MAT-CC05 4 HW CONCRETE,                 ! Name
  Rough,                                  ! Roughness
  0.1016,                                 ! Thickness {m}
  1.311,                                  ! Conductivity {W/m-K}
  2240,                                   ! Density {kg/m3}
  836.8,                                  ! Specific Heat {J/kg-K}
  0.9,                                    ! Thermal Absorptance
  0.7,                                    ! Solar Absorptance
  0.7;                                    ! Visible Absorptance

OS:ComponentCost:LineItem,
  {018da0f7-c13d-4b84-ad4d-e96707fc6598}, ! Handle
  Title 24-2008 Nonres 12 Ext Slab Unheated - 4in Slab without Carpet, ! Name
  ,                                       ! Type
  Construction,                           ! Line Item Type
  Title 24-2008 Nonres 12 Ext Slab Unheated - 4in Slab without Carpet, ! Item Name
  ,                                       ! Object End Use Key
  ,                                       ! Quantity {dimensionless}
  45.52,                                  ! Material Cost {$}
  CostPerArea;                            ! Material Cost Units

OS:ComponentData,
  {54fd3bcd-c948-4109-a7d6-135b38601f5c}, ! Handle
  Component Data 1,                       ! Name
  {f00b4346-21a9-450e-b34d-1bd99d7cd2eb}, ! UUID
  {ebe15109-61c9-429e-9b6d-8f55b970fb83}, ! Version UUID
  1363982081,                             ! Creation Timestamp
  1363982081,                             ! Version Timestamp
  {de83a9eb-48a2-476c-ae79-ad4b5012b236}, ! Name of Object 1
  {60d7e572-de6a-49ec-a5c1-82cc753e7cf6}, ! Name of Object 2
  {018da0f7-c13d-4b84-ad4d-e96707fc6598}; ! Name of Object 3

