
OS:Version,
  {450fa81a-2d24-4ebc-9391-b785ebbbd55a}, ! Handle
  0.9.3;                                  ! Version Identifier

OS:ComponentCost:LineItem,
  {b11239c1-4923-49a3-8366-f57135edc9ea}, ! Handle
  90.1-2001 Nonres B26 Ext Wall Steel-Framed, ! Name
  ,                                       ! Type
  Construction,                           ! Line Item Type
  90.1-2001 Nonres B26 Ext Wall Steel-Framed, ! Item Name
  ,                                       ! Object End Use Key
  ,                                       ! Quantity {dimensionless}
  97.384,                                 ! Material Cost {$}
  CostPerArea;                            ! Material Cost Units

OS:Material,
  {4b647429-79de-4a7a-b63a-29893542eb52}, ! Handle
  Wall Insulation [15],                   ! Name
  MediumRough,                            ! Roughness
  0.117292,                               ! Thickness {m}
  0.045,                                  ! Conductivity {W/m-K}
  265,                                    ! Density {kg/m3}
  836.8,                                  ! Specific Heat {J/kg-K}
  0.9,                                    ! Thermal Absorptance
  0.7,                                    ! Solar Absorptance
  0.7;                                    ! Visible Absorptance

OS:Material:NoMass,
  {20955862-08d7-4914-9531-51b5e4bcefef}, ! Handle
  MAT-SHEATH,                             ! Name
  Rough,                                  ! Roughness
  0.36256,                                ! Thermal Resistance {m2-K/W}
  0.9,                                    ! Thermal Absorptance
  0.7,                                    ! Solar Absorptance
  0.7;                                    ! Visible Absorptance

OS:Material,
  {a2c41964-e87b-4b8c-9f9e-3acb33f69e67}, ! Handle
  1/2IN Gypsum,                           ! Name
  Smooth,                                 ! Roughness
  0.01271,                                ! Thickness {m}
  0.16,                                   ! Conductivity {W/m-K}
  784.9,                                  ! Density {kg/m3}
  830,                                    ! Specific Heat {J/kg-K}
  0.9,                                    ! Thermal Absorptance
  0.92,                                   ! Solar Absorptance
  0.92;                                   ! Visible Absorptance

OS:Construction,
  {13967384-10e8-46e0-9e8a-052c7b676ce9}, ! Handle
  90.1-2001 Nonres B26 Ext Wall Steel-Framed, ! Name
  ,                                       ! Surface Rendering Name
  {20955862-08d7-4914-9531-51b5e4bcefef}, ! Layer 1
  {4b647429-79de-4a7a-b63a-29893542eb52}, ! Layer 2
  {a2c41964-e87b-4b8c-9f9e-3acb33f69e67}; ! Layer 3

