
OS:Version,
  {d742cbb2-5dc9-43aa-9747-57ac3f2c47af}, ! Handle
  0.9.3;                                  ! Version Identifier

OS:Construction,
  {24f2be64-15ab-42d8-8cc2-8424459e9d5c}, ! Handle
  90.1-2007 Nonres 7A Window Metal framing all other, ! Name
  ,                                       ! Surface Rendering Name
  {3529a3c5-cebf-419d-bf6e-b638de84e77a}; ! Layer 1

OS:WindowMaterial:Glazing,
  {3529a3c5-cebf-419d-bf6e-b638de84e77a}, ! Handle
  Theoretical Glass [191],                ! Name
  SpectralAverage,                        ! Optical Data Type
  ,                                       ! Window Glass Spectral Data Set Name
  0.003,                                  ! Thickness {m}
  0.444683,                               ! Solar Transmittance at Normal Incidence
  0.505317,                               ! Front Side Solar Reflectance at Normal Incidence
  0.505317,                               ! Back Side Solar Reflectance at Normal Incidence
  0.450308,                               ! Visible Transmittance at Normal Incidence
  0.499692,                               ! Front Side Visible Reflectance at Normal Incidence
  0.499692,                               ! Back Side Visible Reflectance at Normal Incidence
  0,                                      ! Infrared Transmittance at Normal Incidence
  0.9,                                    ! Front Side Infrared Hemispherical Emissivity
  0.9,                                    ! Back Side Infrared Hemispherical Emissivity
  0.0129892;                              ! Conductivity {W/m-K}

OS:ComponentCost:LineItem,
  {2a8aa6a2-999c-4153-ba02-0e1c6c089410}, ! Handle
  90.1-2007 Nonres 7A Window Metal framing all other, ! Name
  ,                                       ! Type
  Construction,                           ! Line Item Type
  90.1-2007 Nonres 7A Window Metal framing all other, ! Item Name
  ,                                       ! Object End Use Key
  ,                                       ! Quantity {dimensionless}
  508.362,                                ! Material Cost {$}
  CostPerArea;                            ! Material Cost Units

