
OS:Version,
  {4e67103f-e783-40fb-a3de-8d5b4f6c3e68}, ! Handle
  0.9.3;                                  ! Version Identifier

OS:Material,
  {a860b47f-4046-470b-82e7-416307616de5}, ! Handle
  Wood Shingles [1],                      ! Name
  VeryRough,                              ! Roughness
  0.0178,                                 ! Thickness {m}
  0.115,                                  ! Conductivity {W/m-K}
  513,                                    ! Density {kg/m3}
  1255,                                   ! Specific Heat {J/kg-K}
  0.9,                                    ! Thermal Absorptance
  0.78,                                   ! Solar Absorptance
  0.85;                                   ! Visible Absorptance

OS:Material,
  {2a06fbbb-56c1-4855-8d7b-642148f44f54}, ! Handle
  1IN Wood Decking,                       ! Name
  MediumSmooth,                           ! Roughness
  0.0254,                                 ! Thickness {m}
  0.1211,                                 ! Conductivity {W/m-K}
  593,                                    ! Density {kg/m3}
  2510,                                   ! Specific Heat {J/kg-K}
  0.9,                                    ! Thermal Absorptance
  0.78,                                   ! Solar Absorptance
  0.78;                                   ! Visible Absorptance

OS:Material,
  {f62bae2d-a3fa-4a47-bd9b-0a7165c29cc1}, ! Handle
  1/2IN Gypsum,                           ! Name
  Smooth,                                 ! Roughness
  0.01271,                                ! Thickness {m}
  0.16,                                   ! Conductivity {W/m-K}
  784.9,                                  ! Density {kg/m3}
  830,                                    ! Specific Heat {J/kg-K}
  0.9,                                    ! Thermal Absorptance
  0.92,                                   ! Solar Absorptance
  0.92;                                   ! Visible Absorptance

OS:ComponentCost:LineItem,
  {11849f35-dd4c-4e93-9113-0ef85cd25538}, ! Handle
  Title 24-2008 Nonres 8 Roof Attic and Other, ! Name
  ,                                       ! Type
  Construction,                           ! Line Item Type
  Title 24-2008 Nonres 8 Roof Attic and Other, ! Item Name
  ,                                       ! Object End Use Key
  ,                                       ! Quantity {dimensionless}
  31.527,                                 ! Material Cost {$}
  CostPerArea;                            ! Material Cost Units

OS:Construction,
  {33ea54f6-b5aa-4a67-bc02-8fd8f8353d77}, ! Handle
  Title 24-2008 Nonres 8 Roof Attic and Other, ! Name
  ,                                       ! Surface Rendering Name
  {a860b47f-4046-470b-82e7-416307616de5}, ! Layer 1
  {2a06fbbb-56c1-4855-8d7b-642148f44f54}, ! Layer 2
  {b795a2ee-ae74-4cde-bd31-147b74b44856}, ! Layer 3
  {f62bae2d-a3fa-4a47-bd9b-0a7165c29cc1}; ! Layer 4

OS:Material,
  {b795a2ee-ae74-4cde-bd31-147b74b44856}, ! Handle
  Roof Insulation [109],                  ! Name
  MediumRough,                            ! Roughness
  0.0980967,                              ! Thickness {m}
  0.049,                                  ! Conductivity {W/m-K}
  265,                                    ! Density {kg/m3}
  836.8,                                  ! Specific Heat {J/kg-K}
  0.9,                                    ! Thermal Absorptance
  0.7,                                    ! Solar Absorptance
  0.7;                                    ! Visible Absorptance

