
OS:Version,
  {7591bb52-8db8-4ffb-95c6-970c839e16e0}, ! Handle
  0.9.3;                                  ! Version Identifier

OS:Construction,
  {d6f82380-bb7c-4dab-a5db-e5b8940b7088}, ! Handle
  90.1-2001 Nonres B16 Ext Wall Wood-Framed and Other, ! Name
  ,                                       ! Surface Rendering Name
  {4e1cac2e-0cdd-4d50-a9cd-f657b2a00fb3}, ! Layer 1
  {1f70484c-9152-4b06-a5e4-203c7af094f7}, ! Layer 2
  {f306e71d-b5b3-47fc-a3c0-8da6db232ba7}; ! Layer 3

OS:Material,
  {4e1cac2e-0cdd-4d50-a9cd-f657b2a00fb3}, ! Handle
  Wood Siding,                            ! Name
  MediumSmooth,                           ! Roughness
  0.01,                                   ! Thickness {m}
  0.11,                                   ! Conductivity {W/m-K}
  544.62,                                 ! Density {kg/m3}
  1210,                                   ! Specific Heat {J/kg-K}
  0.9,                                    ! Thermal Absorptance
  0.78,                                   ! Solar Absorptance
  0.78;                                   ! Visible Absorptance

OS:Material,
  {1f70484c-9152-4b06-a5e4-203c7af094f7}, ! Handle
  Wall Insulation [2],                    ! Name
  MediumRough,                            ! Roughness
  0.0746874,                              ! Thickness {m}
  0.045,                                  ! Conductivity {W/m-K}
  265,                                    ! Density {kg/m3}
  836.8,                                  ! Specific Heat {J/kg-K}
  0.9,                                    ! Thermal Absorptance
  0.7,                                    ! Solar Absorptance
  0.7;                                    ! Visible Absorptance

OS:Material,
  {f306e71d-b5b3-47fc-a3c0-8da6db232ba7}, ! Handle
  1/2IN Gypsum,                           ! Name
  Smooth,                                 ! Roughness
  0.01271,                                ! Thickness {m}
  0.16,                                   ! Conductivity {W/m-K}
  784.9,                                  ! Density {kg/m3}
  830,                                    ! Specific Heat {J/kg-K}
  0.9,                                    ! Thermal Absorptance
  0.92,                                   ! Solar Absorptance
  0.92;                                   ! Visible Absorptance

OS:ComponentCost:LineItem,
  {ed583d6d-7620-4570-9c9f-fff74a44de1b}, ! Handle
  90.1-2001 Nonres B16 Ext Wall Wood-Framed and Other, ! Name
  ,                                       ! Type
  Construction,                           ! Line Item Type
  90.1-2001 Nonres B16 Ext Wall Wood-Framed and Other, ! Item Name
  ,                                       ! Object End Use Key
  ,                                       ! Quantity {dimensionless}
  73.056,                                 ! Material Cost {$}
  CostPerArea;                            ! Material Cost Units

OS:ComponentData,
  {15f0dfbd-ed4e-43d8-9381-4fe712f6d0bd}, ! Handle
  Component Data 1,                       ! Name
  {375a4e1f-9083-4d52-925f-3574b448a5aa}, ! UUID
  {a9f5a18b-401e-4f8b-b606-56ef5da29535}, ! Version UUID
  1363981375,                             ! Creation Timestamp
  1363981375,                             ! Version Timestamp
  {d6f82380-bb7c-4dab-a5db-e5b8940b7088}, ! Name of Object 1
  {4e1cac2e-0cdd-4d50-a9cd-f657b2a00fb3}, ! Name of Object 2
  {1f70484c-9152-4b06-a5e4-203c7af094f7}, ! Name of Object 3
  {f306e71d-b5b3-47fc-a3c0-8da6db232ba7}, ! Name of Object 4
  {ed583d6d-7620-4570-9c9f-fff74a44de1b}; ! Name of Object 5

