
OS:Version,
  {ae0d42cd-9cb4-4336-82e9-c230e0527800}, ! Handle
  0.9.3;                                  ! Version Identifier

OS:Material,
  {7e01d620-8d0c-4c67-b736-19abb923c458}, ! Handle
  Wood Siding,                            ! Name
  MediumSmooth,                           ! Roughness
  0.01,                                   ! Thickness {m}
  0.11,                                   ! Conductivity {W/m-K}
  544.62,                                 ! Density {kg/m3}
  1210,                                   ! Specific Heat {J/kg-K}
  0.9,                                    ! Thermal Absorptance
  0.78,                                   ! Solar Absorptance
  0.78;                                   ! Visible Absorptance

OS:ComponentCost:LineItem,
  {195d0bb2-5c7e-4984-97cf-118ae3cc54ae}, ! Handle
  90.1-2001 Nonres B16 Ext Wall Wood-Framed and Other, ! Name
  ,                                       ! Type
  Construction,                           ! Line Item Type
  90.1-2001 Nonres B16 Ext Wall Wood-Framed and Other, ! Item Name
  ,                                       ! Object End Use Key
  ,                                       ! Quantity {dimensionless}
  73.056,                                 ! Material Cost {$}
  CostPerArea;                            ! Material Cost Units

OS:Construction,
  {72c4b949-b76f-4b83-a912-de5dbc70c340}, ! Handle
  90.1-2001 Nonres B16 Ext Wall Wood-Framed and Other, ! Name
  ,                                       ! Surface Rendering Name
  {7e01d620-8d0c-4c67-b736-19abb923c458}, ! Layer 1
  {6d5dcf10-b70b-44a3-9925-e5467f7d1097}, ! Layer 2
  {94b6a654-ac74-4d61-93e7-7a9c2921acca}; ! Layer 3

OS:Material,
  {6d5dcf10-b70b-44a3-9925-e5467f7d1097}, ! Handle
  Wall Insulation [2],                    ! Name
  MediumRough,                            ! Roughness
  0.0746874,                              ! Thickness {m}
  0.045,                                  ! Conductivity {W/m-K}
  265,                                    ! Density {kg/m3}
  836.8,                                  ! Specific Heat {J/kg-K}
  0.9,                                    ! Thermal Absorptance
  0.7,                                    ! Solar Absorptance
  0.7;                                    ! Visible Absorptance

OS:Material,
  {94b6a654-ac74-4d61-93e7-7a9c2921acca}, ! Handle
  1/2IN Gypsum,                           ! Name
  Smooth,                                 ! Roughness
  0.01271,                                ! Thickness {m}
  0.16,                                   ! Conductivity {W/m-K}
  784.9,                                  ! Density {kg/m3}
  830,                                    ! Specific Heat {J/kg-K}
  0.9,                                    ! Thermal Absorptance
  0.92,                                   ! Solar Absorptance
  0.92;                                   ! Visible Absorptance

