
OS:Version,
  {515ccbd6-8973-4c32-901e-b2fb6c220b14}, ! Handle
  0.9.3;                                  ! Version Identifier

OS:Construction,
  {9f712f3b-6194-4f19-8be9-df44d05e0867}, ! Handle
  AEDG-SmOffice 6B Ext Wall Metal Building, ! Name
  ,                                       ! Surface Rendering Name
  {724ec7ae-6ade-407a-9084-4985046486a8}, ! Layer 1
  {b3418987-4934-4561-92ca-6a62aebd3a0a}, ! Layer 2
  {a220da20-ae38-46b2-aa4e-793fa2d67249}; ! Layer 3

OS:Material,
  {724ec7ae-6ade-407a-9084-4985046486a8}, ! Handle
  Metal Siding,                           ! Name
  Smooth,                                 ! Roughness
  0.0015,                                 ! Thickness {m}
  44.96,                                  ! Conductivity {W/m-K}
  7688.86,                                ! Density {kg/m3}
  410,                                    ! Specific Heat {J/kg-K}
  0.9,                                    ! Thermal Absorptance
  0.2,                                    ! Solar Absorptance
  0.2;                                    ! Visible Absorptance

OS:Material,
  {b3418987-4934-4561-92ca-6a62aebd3a0a}, ! Handle
  Wall Insulation [9],                    ! Name
  MediumRough,                            ! Roughness
  0.128642,                               ! Thickness {m}
  0.045,                                  ! Conductivity {W/m-K}
  265,                                    ! Density {kg/m3}
  836.8,                                  ! Specific Heat {J/kg-K}
  0.9,                                    ! Thermal Absorptance
  0.7,                                    ! Solar Absorptance
  0.7;                                    ! Visible Absorptance

OS:Material,
  {a220da20-ae38-46b2-aa4e-793fa2d67249}, ! Handle
  1/2IN Gypsum,                           ! Name
  Smooth,                                 ! Roughness
  0.01271,                                ! Thickness {m}
  0.16,                                   ! Conductivity {W/m-K}
  784.9,                                  ! Density {kg/m3}
  830,                                    ! Specific Heat {J/kg-K}
  0.9,                                    ! Thermal Absorptance
  0.92,                                   ! Solar Absorptance
  0.92;                                   ! Visible Absorptance

OS:ComponentCost:LineItem,
  {f41846a6-35cc-41d0-8e9f-0dea516b02b4}, ! Handle
  AEDG-SmOffice 6B Ext Wall Metal Building, ! Name
  ,                                       ! Type
  Construction,                           ! Line Item Type
  AEDG-SmOffice 6B Ext Wall Metal Building, ! Item Name
  ,                                       ! Object End Use Key
  ,                                       ! Quantity {dimensionless}
  107.698,                                ! Material Cost {$}
  CostPerArea;                            ! Material Cost Units

