
OS:Version,
  {e8526eec-2f07-4bf4-b59f-169c5a23f973}, ! Handle
  0.9.3;                                  ! Version Identifier

OS:ComponentCost:LineItem,
  {47e316d5-02fd-4fcb-a636-5cf865403e8d}, ! Handle
  90.1-1999 Nonres B1 Skylight without Curb, ! Name
  ,                                       ! Type
  Construction,                           ! Line Item Type
  90.1-1999 Nonres B1 Skylight without Curb, ! Item Name
  ,                                       ! Object End Use Key
  ,                                       ! Quantity {dimensionless}
  498.248,                                ! Material Cost {$}
  CostPerArea;                            ! Material Cost Units

OS:Construction,
  {cf23f023-e067-431f-baea-040be7d35abc}, ! Handle
  90.1-1999 Nonres B1 Skylight without Curb, ! Name
  ,                                       ! Surface Rendering Name
  {8aa34014-8883-486b-b75e-201dc3895fae}; ! Layer 1

OS:WindowMaterial:Glazing,
  {8aa34014-8883-486b-b75e-201dc3895fae}, ! Handle
  Theoretical Glass [5],                  ! Name
  SpectralAverage,                        ! Optical Data Type
  ,                                       ! Window Glass Spectral Data Set Name
  0.003,                                  ! Thickness {m}
  0.177138,                               ! Solar Transmittance at Normal Incidence
  0.772862,                               ! Front Side Solar Reflectance at Normal Incidence
  0.772862,                               ! Back Side Solar Reflectance at Normal Incidence
  0.176052,                               ! Visible Transmittance at Normal Incidence
  0.773948,                               ! Front Side Visible Reflectance at Normal Incidence
  0.773948,                               ! Back Side Visible Reflectance at Normal Incidence
  0,                                      ! Infrared Transmittance at Normal Incidence
  0.999,                                  ! Front Side Infrared Hemispherical Emissivity
  0.999,                                  ! Back Side Infrared Hemispherical Emissivity
  299.383;                                ! Conductivity {W/m-K}

