
OS:Version,
  {f7c01491-3e66-4f7f-bb81-4c9f18cd3d82}, ! Handle
  0.9.3;                                  ! Version Identifier

OS:Material,
  {5028beab-008b-41e3-9d25-5e5434fc18f3}, ! Handle
  1/2IN Gypsum,                           ! Name
  Smooth,                                 ! Roughness
  0.01271,                                ! Thickness {m}
  0.16,                                   ! Conductivity {W/m-K}
  784.9,                                  ! Density {kg/m3}
  830,                                    ! Specific Heat {J/kg-K}
  0.9,                                    ! Thermal Absorptance
  0.92,                                   ! Solar Absorptance
  0.92;                                   ! Visible Absorptance

OS:Construction,
  {581a2086-2f7e-4fe4-b509-caf34a8c5aaa}, ! Handle
  Title 24-2008 Nonres 4 Ext Wall Metal Building, ! Name
  ,                                       ! Surface Rendering Name
  {beff5450-8d2d-4a92-9681-2f5d59e0d363}, ! Layer 1
  {9d6ad31a-1f71-4cac-ba09-ad5b4d5c23ea}, ! Layer 2
  {5028beab-008b-41e3-9d25-5e5434fc18f3}; ! Layer 3

OS:Material,
  {beff5450-8d2d-4a92-9681-2f5d59e0d363}, ! Handle
  Metal Siding,                           ! Name
  Smooth,                                 ! Roughness
  0.0015,                                 ! Thickness {m}
  44.96,                                  ! Conductivity {W/m-K}
  7688.86,                                ! Density {kg/m3}
  410,                                    ! Specific Heat {J/kg-K}
  0.9,                                    ! Thermal Absorptance
  0.2,                                    ! Solar Absorptance
  0.2;                                    ! Visible Absorptance

OS:Material,
  {9d6ad31a-1f71-4cac-ba09-ad5b4d5c23ea}, ! Handle
  Wall Insulation [159],                  ! Name
  MediumRough,                            ! Roughness
  0.0812,                                 ! Thickness {m}
  0.045,                                  ! Conductivity {W/m-K}
  265,                                    ! Density {kg/m3}
  836.8,                                  ! Specific Heat {J/kg-K}
  0.9,                                    ! Thermal Absorptance
  0.7,                                    ! Solar Absorptance
  0.7;                                    ! Visible Absorptance

OS:ComponentCost:LineItem,
  {c7c72df7-ef51-4a42-a818-fd008e07e89f}, ! Handle
  Title 24-2008 Nonres 4 Ext Wall Metal Building, ! Name
  ,                                       ! Type
  Construction,                           ! Line Item Type
  Title 24-2008 Nonres 4 Ext Wall Metal Building, ! Item Name
  ,                                       ! Object End Use Key
  ,                                       ! Quantity {dimensionless}
  184.211,                                ! Material Cost {$}
  CostPerArea;                            ! Material Cost Units

