
OS:Version,
  {c9a6579c-533a-44cd-9505-9822e842457d}, !- Handle
  1.0.6;                                  !- Version Identifier

OS:WindowMaterial:Glazing,
  {22b8c23a-e867-4147-9766-a83314c1e365}, !- Handle
  189.1-2011 NONRES 4B METAL FRAMING ALL OTHER THEORETICAL GLAZING, !- Name
  SpectralAverage,                        !- Optical Data Type
  ,                                       !- Window Glass Spectral Data Set Name
  0.02657,                                !- Thickness {m}
  0.26293,                                !- Solar Transmittance at Normal Incidence
  0.51938,                                !- Front Side Solar Reflectance at Normal Incidence
  0.51938,                                !- Back Side Solar Reflectance at Normal Incidence
  0.26293,                                !- Visible Transmittance at Normal Incidence
  0.51938,                                !- Front Side Visible Reflectance at Normal Incidence
  0.51938,                                !- Back Side Visible Reflectance at Normal Incidence
  0,                                      !- Infrared Transmittance at Normal Incidence
  0.84,                                   !- Front Side Infrared Hemispherical Emissivity
  0.84,                                   !- Back Side Infrared Hemispherical Emissivity
  0.1212,                                 !- Conductivity {W/m-K}
  1,                                      !- Dirt Correction Factor for Solar and Visible Transmittance
  No;                                     !- Solar Diffusing

OS:Construction,
  {a1b262e0-9f3a-4a22-8b37-4572de48c859}, !- Handle
  189.1-2011 NONRES 4B METAL FRAMING ALL OTHER, !- Name
  ,                                       !- Surface Rendering Name
  {22b8c23a-e867-4147-9766-a83314c1e365}; !- Layer 1

