
OS:Version,
  {733fac04-6422-49bd-9cad-ac6d0b095b58}, !- Handle
  1.0.6;                                  !- Version Identifier

OS:Construction,
  {91e1e149-57e5-471c-8145-d6777336173d}, !- Handle
  189.1-2011 NONRES 4B METAL FRAMING ALL OTHER, !- Name
  ,                                       !- Surface Rendering Name
  {a6f67dda-800c-49f7-bb11-d5a137d8ba09}; !- Layer 1

OS:WindowMaterial:Glazing,
  {a6f67dda-800c-49f7-bb11-d5a137d8ba09}, !- Handle
  189.1-2011 NONRES 4B METAL FRAMING ALL OTHER THEORETICAL GLAZING, !- Name
  SpectralAverage,                        !- Optical Data Type
  ,                                       !- Window Glass Spectral Data Set Name
  0.02657,                                !- Thickness {m}
  0.26293,                                !- Solar Transmittance at Normal Incidence
  0.51938,                                !- Front Side Solar Reflectance at Normal Incidence
  0.51938,                                !- Back Side Solar Reflectance at Normal Incidence
  0.26293,                                !- Visible Transmittance at Normal Incidence
  0.51938,                                !- Front Side Visible Reflectance at Normal Incidence
  0.51938,                                !- Back Side Visible Reflectance at Normal Incidence
  0,                                      !- Infrared Transmittance at Normal Incidence
  0.84,                                   !- Front Side Infrared Hemispherical Emissivity
  0.84,                                   !- Back Side Infrared Hemispherical Emissivity
  0.1212,                                 !- Conductivity {W/m-K}
  1,                                      !- Dirt Correction Factor for Solar and Visible Transmittance
  No;                                     !- Solar Diffusing

OS:ComponentData,
  {b290c3ed-7d26-468b-8322-cf3ab424d322}, !- Handle
  Component Data 1,                       !- Name
  {d28b304a-608e-42bb-9ce8-f6bb90973afc}, !- UUID
  {d2f731de-81d6-4e77-aea4-10f700894d23}, !- Version UUID
  1380911254,                             !- Creation Timestamp
  1380911254,                             !- Version Timestamp
  {91e1e149-57e5-471c-8145-d6777336173d}, !- Name of Object 1
  {a6f67dda-800c-49f7-bb11-d5a137d8ba09}; !- Name of Object 2

