
OS:Version,
  {a66545a3-b53b-4710-a7c0-61245b83cd25}, ! Handle
  0.9.3;                                  ! Version Identifier

OS:Construction,
  {9883f436-c3c1-4518-b667-f8ebeaff797d}, ! Handle
  90.1-1999 Res B11 Ext Wall Wood-Framed and Other, ! Name
  ,                                       ! Surface Rendering Name
  {5c6a2919-53ee-4f67-b2f6-bf5ccf4c6f3b}, ! Layer 1
  {f253c850-583f-44e0-af76-419cd254fc50}, ! Layer 2
  {0828247b-5e18-45a4-bbfe-11bdf5fcf810}; ! Layer 3

OS:Material,
  {5c6a2919-53ee-4f67-b2f6-bf5ccf4c6f3b}, ! Handle
  Wood Siding,                            ! Name
  MediumSmooth,                           ! Roughness
  0.01,                                   ! Thickness {m}
  0.11,                                   ! Conductivity {W/m-K}
  544.62,                                 ! Density {kg/m3}
  1210,                                   ! Specific Heat {J/kg-K}
  0.9,                                    ! Thermal Absorptance
  0.78,                                   ! Solar Absorptance
  0.78;                                   ! Visible Absorptance

OS:Material,
  {f253c850-583f-44e0-af76-419cd254fc50}, ! Handle
  Wall Insulation [2],                    ! Name
  MediumRough,                            ! Roughness
  0.0746874,                              ! Thickness {m}
  0.045,                                  ! Conductivity {W/m-K}
  265,                                    ! Density {kg/m3}
  836.8,                                  ! Specific Heat {J/kg-K}
  0.9,                                    ! Thermal Absorptance
  0.7,                                    ! Solar Absorptance
  0.7;                                    ! Visible Absorptance

OS:Material,
  {0828247b-5e18-45a4-bbfe-11bdf5fcf810}, ! Handle
  1/2IN Gypsum,                           ! Name
  Smooth,                                 ! Roughness
  0.01271,                                ! Thickness {m}
  0.16,                                   ! Conductivity {W/m-K}
  784.9,                                  ! Density {kg/m3}
  830,                                    ! Specific Heat {J/kg-K}
  0.9,                                    ! Thermal Absorptance
  0.92,                                   ! Solar Absorptance
  0.92;                                   ! Visible Absorptance

OS:ComponentCost:LineItem,
  {a79ed949-abf0-4098-90b0-0779c760533f}, ! Handle
  90.1-1999 Res B11 Ext Wall Wood-Framed and Other, ! Name
  ,                                       ! Type
  Construction,                           ! Line Item Type
  90.1-1999 Res B11 Ext Wall Wood-Framed and Other, ! Item Name
  ,                                       ! Object End Use Key
  ,                                       ! Quantity {dimensionless}
  73.056,                                 ! Material Cost {$}
  CostPerArea;                            ! Material Cost Units

OS:ComponentData,
  {7bbebf97-b1fa-417b-b40a-70603076e44d}, ! Handle
  Component Data 1,                       ! Name
  {85ba8cab-f15f-4a1f-887f-37209883d04d}, ! UUID
  {2addad5b-e798-4de0-8c24-29f3c195016b}, ! Version UUID
  1363981211,                             ! Creation Timestamp
  1363981211,                             ! Version Timestamp
  {9883f436-c3c1-4518-b667-f8ebeaff797d}, ! Name of Object 1
  {5c6a2919-53ee-4f67-b2f6-bf5ccf4c6f3b}, ! Name of Object 2
  {f253c850-583f-44e0-af76-419cd254fc50}, ! Name of Object 3
  {0828247b-5e18-45a4-bbfe-11bdf5fcf810}, ! Name of Object 4
  {a79ed949-abf0-4098-90b0-0779c760533f}; ! Name of Object 5

