
OS:Version,
  {4693f22b-60db-40c7-95b2-597a60ebf12e}, ! Handle
  0.9.3;                                  ! Version Identifier

OS:Construction,
  {72d7cca7-c4c0-42be-bec1-33de658ef4b4}, ! Handle
  189.1-2009 Nonres 1A Exposed Floor Mass, ! Name
  ,                                       ! Surface Rendering Name
  {ab0a0363-df0a-48aa-bc8f-a78f6e4ee932}, ! Layer 1
  {3d8d479f-e6c1-4f44-ab96-7ce1f14db1de}, ! Layer 2
  {1880ac73-6907-4db9-8843-0d9c1d897b20}; ! Layer 3

OS:Material,
  {ab0a0363-df0a-48aa-bc8f-a78f6e4ee932}, ! Handle
  Floor Insulation [7],                   ! Name
  MediumRough,                            ! Roughness
  0.0300799,                              ! Thickness {m}
  0.045,                                  ! Conductivity {W/m-K}
  265,                                    ! Density {kg/m3}
  836.8,                                  ! Specific Heat {J/kg-K}
  0.9,                                    ! Thermal Absorptance
  0.7,                                    ! Solar Absorptance
  0.7;                                    ! Visible Absorptance

OS:Material,
  {3d8d479f-e6c1-4f44-ab96-7ce1f14db1de}, ! Handle
  MAT-CC05 8 HW CONCRETE,                 ! Name
  Rough,                                  ! Roughness
  0.20321,                                ! Thickness {m}
  1.311,                                  ! Conductivity {W/m-K}
  2240,                                   ! Density {kg/m3}
  836.8,                                  ! Specific Heat {J/kg-K}
  0.9,                                    ! Thermal Absorptance
  0.7,                                    ! Solar Absorptance
  0.7;                                    ! Visible Absorptance

OS:Material:NoMass,
  {1880ac73-6907-4db9-8843-0d9c1d897b20}, ! Handle
  CP02 CARPET PAD,                        ! Name
  VeryRough,                              ! Roughness
  0.21648,                                ! Thermal Resistance {m2-K/W}
  0.9,                                    ! Thermal Absorptance
  0.7,                                    ! Solar Absorptance
  0.8;                                    ! Visible Absorptance

OS:ComponentCost:LineItem,
  {5e155aac-a3d5-4ed1-a826-5b39e57e1b40}, ! Handle
  189.1-2009 Nonres 1A Exposed Floor Mass, ! Name
  ,                                       ! Type
  Construction,                           ! Line Item Type
  189.1-2009 Nonres 1A Exposed Floor Mass, ! Item Name
  ,                                       ! Object End Use Key
  ,                                       ! Quantity {dimensionless}
  44.945,                                 ! Material Cost {$}
  CostPerArea;                            ! Material Cost Units

