
OS:Version,
  {38f9cf9a-c108-4f07-8fdb-80bb326d1646}, ! Handle
  0.9.3;                                  ! Version Identifier

OS:Construction,
  {796a7246-24fd-4cfb-b13d-31dc5b5bec04}, ! Handle
  90.1-2001 Res B13 Ext Slab Unheated - 8in Slab without Carpet, ! Name
  ,                                       ! Surface Rendering Name
  {57556895-0c1c-441d-bad1-f1cfc0eb4f1c}; ! Layer 1

OS:Material,
  {57556895-0c1c-441d-bad1-f1cfc0eb4f1c}, ! Handle
  MAT-CC05 8 HW CONCRETE,                 ! Name
  Rough,                                  ! Roughness
  0.20321,                                ! Thickness {m}
  1.311,                                  ! Conductivity {W/m-K}
  2240,                                   ! Density {kg/m3}
  836.8,                                  ! Specific Heat {J/kg-K}
  0.9,                                    ! Thermal Absorptance
  0.7,                                    ! Solar Absorptance
  0.7;                                    ! Visible Absorptance

OS:ComponentCost:LineItem,
  {73836c52-645f-48c2-a997-a0249bcd0e9f}, ! Handle
  90.1-2001 Res B13 Ext Slab Unheated - 8in Slab without Carpet, ! Name
  ,                                       ! Type
  Construction,                           ! Line Item Type
  90.1-2001 Res B13 Ext Slab Unheated - 8in Slab without Carpet, ! Item Name
  ,                                       ! Object End Use Key
  ,                                       ! Quantity {dimensionless}
  45.52,                                  ! Material Cost {$}
  CostPerArea;                            ! Material Cost Units

OS:ComponentData,
  {fad8965d-f123-468f-899b-4d573f8d862c}, ! Handle
  Component Data 1,                       ! Name
  {2280e4eb-7bd5-43cc-8dbe-94705125e501}, ! UUID
  {f6fdb420-466d-4ccb-8151-8551865ce0ac}, ! Version UUID
  1363981523,                             ! Creation Timestamp
  1363981523,                             ! Version Timestamp
  {796a7246-24fd-4cfb-b13d-31dc5b5bec04}, ! Name of Object 1
  {57556895-0c1c-441d-bad1-f1cfc0eb4f1c}, ! Name of Object 2
  {73836c52-645f-48c2-a997-a0249bcd0e9f}; ! Name of Object 3

