
OS:Version,
  {85b2b8e7-c805-4986-a6ec-379ff55df721}, ! Handle
  0.9.3;                                  ! Version Identifier

OS:Construction,
  {af9f3885-e9e5-4cb4-8ba8-601524740125}, ! Handle
  Title 24-2005 Nonres 2 Exposed Floor Mass, ! Name
  ,                                       ! Surface Rendering Name
  {c639528e-7842-4682-acaf-904de51ce49c}, ! Layer 1
  {5f171a25-687b-49a8-956e-f6989b526c09}, ! Layer 2
  {47f35aac-ed8e-47ca-bd35-cb3d451afe63}; ! Layer 3

OS:Material,
  {c639528e-7842-4682-acaf-904de51ce49c}, ! Handle
  Floor Insulation [54],                  ! Name
  MediumRough,                            ! Roughness
  0.0604331,                              ! Thickness {m}
  0.045,                                  ! Conductivity {W/m-K}
  265,                                    ! Density {kg/m3}
  836.8,                                  ! Specific Heat {J/kg-K}
  0.9,                                    ! Thermal Absorptance
  0.7,                                    ! Solar Absorptance
  0.7;                                    ! Visible Absorptance

OS:Material,
  {5f171a25-687b-49a8-956e-f6989b526c09}, ! Handle
  MAT-CC05 8 HW CONCRETE,                 ! Name
  Rough,                                  ! Roughness
  0.20321,                                ! Thickness {m}
  1.311,                                  ! Conductivity {W/m-K}
  2240,                                   ! Density {kg/m3}
  836.8,                                  ! Specific Heat {J/kg-K}
  0.9,                                    ! Thermal Absorptance
  0.7,                                    ! Solar Absorptance
  0.7;                                    ! Visible Absorptance

OS:Material:NoMass,
  {47f35aac-ed8e-47ca-bd35-cb3d451afe63}, ! Handle
  CP02 CARPET PAD,                        ! Name
  VeryRough,                              ! Roughness
  0.21648,                                ! Thermal Resistance {m2-K/W}
  0.9,                                    ! Thermal Absorptance
  0.7,                                    ! Solar Absorptance
  0.8;                                    ! Visible Absorptance

OS:ComponentCost:LineItem,
  {b615119a-de21-4327-aaef-4751fec2e95f}, ! Handle
  Title 24-2005 Nonres 2 Exposed Floor Mass, ! Name
  ,                                       ! Type
  Construction,                           ! Line Item Type
  Title 24-2005 Nonres 2 Exposed Floor Mass, ! Item Name
  ,                                       ! Object End Use Key
  ,                                       ! Quantity {dimensionless}
  49.191,                                 ! Material Cost {$}
  CostPerArea;                            ! Material Cost Units

