
OS:Version,
  {8164ff32-5770-40de-87e1-14ad70467da2}, ! Handle
  0.9.3;                                  ! Version Identifier

OS:Construction,
  {6916f440-813b-41ff-b584-d67f805ca4f8}, ! Handle
  90.1 Windows Window Fixed 2422 Brk-Grn-Ins-ClrPye, ! Name
  ,                                       ! Surface Rendering Name
  {a8d015cf-dec6-49f4-9c1f-2c6bede7be7e}; ! Layer 1

OS:WindowMaterial:Glazing,
  {a8d015cf-dec6-49f4-9c1f-2c6bede7be7e}, ! Handle
  Theoretical Glass [344],                ! Name
  SpectralAverage,                        ! Optical Data Type
  ,                                       ! Window Glass Spectral Data Set Name
  0.003,                                  ! Thickness {m}
  0.414369,                               ! Solar Transmittance at Normal Incidence
  0.535631,                               ! Front Side Solar Reflectance at Normal Incidence
  0.535631,                               ! Back Side Solar Reflectance at Normal Incidence
  0.549983,                               ! Visible Transmittance at Normal Incidence
  0.400017,                               ! Front Side Visible Reflectance at Normal Incidence
  0.400017,                               ! Back Side Visible Reflectance at Normal Incidence
  0,                                      ! Infrared Transmittance at Normal Incidence
  0.9,                                    ! Front Side Infrared Hemispherical Emissivity
  0.9,                                    ! Back Side Infrared Hemispherical Emissivity
  0.0129976;                              ! Conductivity {W/m-K}

OS:ComponentCost:LineItem,
  {d97ef8cb-0be4-4f8e-bbe2-576d5869f612}, ! Handle
  90.1 Windows Window Fixed 2422 Brk-Grn-Ins-ClrPye, ! Name
  ,                                       ! Type
  Construction,                           ! Line Item Type
  90.1 Windows Window Fixed 2422 Brk-Grn-Ins-ClrPye, ! Item Name
  ,                                       ! Object End Use Key
  ,                                       ! Quantity {dimensionless}
  0,                                      ! Material Cost {$}
  CostPerArea;                            ! Material Cost Units

