
OS:Version,
  {a7eebd34-440a-4109-a6a6-17ecab4fff7a}, ! Handle
  0.9.3;                                  ! Version Identifier

OS:Construction,
  {dcf8c039-4c21-4f8f-95ef-6d4e3ffcc7e0}, ! Handle
  90.1 Windows Window Fixed 2422 Brk-Grn-Ins-ClrPye, ! Name
  ,                                       ! Surface Rendering Name
  {4e8aecd9-ba0b-481a-8063-a501b9bc1322}; ! Layer 1

OS:WindowMaterial:Glazing,
  {4e8aecd9-ba0b-481a-8063-a501b9bc1322}, ! Handle
  Theoretical Glass [344],                ! Name
  SpectralAverage,                        ! Optical Data Type
  ,                                       ! Window Glass Spectral Data Set Name
  0.003,                                  ! Thickness {m}
  0.414369,                               ! Solar Transmittance at Normal Incidence
  0.535631,                               ! Front Side Solar Reflectance at Normal Incidence
  0.535631,                               ! Back Side Solar Reflectance at Normal Incidence
  0.549983,                               ! Visible Transmittance at Normal Incidence
  0.400017,                               ! Front Side Visible Reflectance at Normal Incidence
  0.400017,                               ! Back Side Visible Reflectance at Normal Incidence
  0,                                      ! Infrared Transmittance at Normal Incidence
  0.9,                                    ! Front Side Infrared Hemispherical Emissivity
  0.9,                                    ! Back Side Infrared Hemispherical Emissivity
  0.0129976;                              ! Conductivity {W/m-K}

OS:ComponentCost:LineItem,
  {09c14a2d-f313-495a-a785-9337a0e27034}, ! Handle
  90.1 Windows Window Fixed 2422 Brk-Grn-Ins-ClrPye, ! Name
  ,                                       ! Type
  Construction,                           ! Line Item Type
  90.1 Windows Window Fixed 2422 Brk-Grn-Ins-ClrPye, ! Item Name
  ,                                       ! Object End Use Key
  ,                                       ! Quantity {dimensionless}
  0,                                      ! Material Cost {$}
  CostPerArea;                            ! Material Cost Units

OS:ComponentData,
  {8aa41edf-0213-4dcb-ae29-a33ffb1e9558}, ! Handle
  Component Data 1,                       ! Name
  {17f8fe34-9bcd-4de9-89f8-b07d545e442d}, ! UUID
  {dc71ce22-f708-498e-8837-264ff1581f73}, ! Version UUID
  1363981009,                             ! Creation Timestamp
  1363981009,                             ! Version Timestamp
  {dcf8c039-4c21-4f8f-95ef-6d4e3ffcc7e0}, ! Name of Object 1
  {4e8aecd9-ba0b-481a-8063-a501b9bc1322}, ! Name of Object 2
  {09c14a2d-f313-495a-a785-9337a0e27034}; ! Name of Object 3

