
OS:Version,
  {1b60fa67-b260-4939-b258-357d7e9e72df}, ! Handle
  0.9.3;                                  ! Version Identifier

OS:ComponentCost:LineItem,
  {4475c764-820c-42e9-b8c9-b122a154acbf}, ! Handle
  Title 24-2008 Nonres 5 Skylight without Curb, ! Name
  ,                                       ! Type
  Construction,                           ! Line Item Type
  Title 24-2008 Nonres 5 Skylight without Curb, ! Item Name
  ,                                       ! Object End Use Key
  ,                                       ! Quantity {dimensionless}
  511.59,                                 ! Material Cost {$}
  CostPerArea;                            ! Material Cost Units

OS:Construction,
  {520d9014-5ea7-4115-940f-b8e81b21a92c}, ! Handle
  Title 24-2008 Nonres 5 Skylight without Curb, ! Name
  ,                                       ! Surface Rendering Name
  {ad55f28f-b62d-4979-9e3b-03de1f0b38e1}; ! Layer 1

OS:WindowMaterial:Glazing,
  {ad55f28f-b62d-4979-9e3b-03de1f0b38e1}, ! Handle
  Theoretical Glass [681],                ! Name
  SpectralAverage,                        ! Optical Data Type
  ,                                       ! Window Glass Spectral Data Set Name
  0.003,                                  ! Thickness {m}
  0.390498,                               ! Solar Transmittance at Normal Incidence
  0.559502,                               ! Front Side Solar Reflectance at Normal Incidence
  0.559502,                               ! Back Side Solar Reflectance at Normal Incidence
  0.400004,                               ! Visible Transmittance at Normal Incidence
  0.549996,                               ! Front Side Visible Reflectance at Normal Incidence
  0.549996,                               ! Back Side Visible Reflectance at Normal Incidence
  0,                                      ! Infrared Transmittance at Normal Incidence
  0.9,                                    ! Front Side Infrared Hemispherical Emissivity
  0.9,                                    ! Back Side Infrared Hemispherical Emissivity
  0.0498596;                              ! Conductivity {W/m-K}

