
OS:Version,
  {775adaa4-0a8b-4a46-a7b7-1d0f75d04191}, ! Handle
  0.9.3;                                  ! Version Identifier

OS:Material,
  {5b3f4dcc-acfa-4072-8c7c-e2f3ca54258b}, ! Handle
  Roof Insulation [1],                    ! Name
  MediumRough,                            ! Roughness
  0.123533,                               ! Thickness {m}
  0.049,                                  ! Conductivity {W/m-K}
  265,                                    ! Density {kg/m3}
  836.8,                                  ! Specific Heat {J/kg-K}
  0.9,                                    ! Thermal Absorptance
  0.7,                                    ! Solar Absorptance
  0.7;                                    ! Visible Absorptance

OS:ComponentCost:LineItem,
  {0526ec73-3d5e-4890-92f0-a4dcb7001250}, ! Handle
  90.1-1999 Res B22 Roof Metal Building,  ! Name
  ,                                       ! Type
  Construction,                           ! Line Item Type
  90.1-1999 Res B22 Roof Metal Building,  ! Item Name
  ,                                       ! Object End Use Key
  ,                                       ! Quantity {dimensionless}
  38.206,                                 ! Material Cost {$}
  CostPerArea;                            ! Material Cost Units

OS:Material,
  {22de0713-96d9-4ad4-b9f4-8b277eb30fa4}, ! Handle
  Metal Roofing,                          ! Name
  MediumSmooth,                           ! Roughness
  0.001524,                               ! Thickness {m}
  45.006,                                 ! Conductivity {W/m-K}
  7680,                                   ! Density {kg/m3}
  418.4,                                  ! Specific Heat {J/kg-K}
  0.9,                                    ! Thermal Absorptance
  0.7,                                    ! Solar Absorptance
  0.3;                                    ! Visible Absorptance

OS:Construction,
  {abe0ac06-9545-4c2d-a3e4-3d3c89ea5b03}, ! Handle
  90.1-1999 Res B22 Roof Metal Building,  ! Name
  ,                                       ! Surface Rendering Name
  {22de0713-96d9-4ad4-b9f4-8b277eb30fa4}, ! Layer 1
  {5b3f4dcc-acfa-4072-8c7c-e2f3ca54258b}; ! Layer 2

