
! 
OS:Version,
  {9c37d538-db0d-4a47-9850-5bede7e76bd5}, !- Handle
  1.13.0;                                 !- Version Identifier


! {"nombreProductoCorto": "CLIMALIT PLUS con PLANITHERM 4S F2 6(16 argon90%) 44.2", "codigoEAN": "", "handle": "7e1b5f2a-f6d7-44e1-958c-e42bfa6d0247", "g": 0.42, "tV": 0.64, "u": 1.0, "nombreProducto": "CLIMALIT PLUS con PLANITHERM 4S F2 6(16 argon90%) 44.2\nU:1.0 W/m2K - g:0.42 - Tv: 0.64"}
OS:WindowMaterial:SimpleGlazingSystem,
  {7e1b5f2a-f6d7-44e1-958c-e42bfa6d0247}, !- Handle
  CLIMALIT PLUS con PLANITHERM 4S F2 6(16 argon90%) 44.2, !- Name
  1.0,                                    !- U-Factor {W/m2-K}
  0.42,                                    !- Solar Heat Gain Coefficient
  0.64;                                    !- Visible Transmittance     
  
  
OS:Construction,
  {7bfa5cd7-2250-4ba8-a50a-148ddc985222}, !- Handle
  CLIMALIT PLUS con PLANITHERM 4S F2 6(16 argon90%) 44.2,                         !- Name
  ,                                       !- Surface Rendering Name
  {7e1b5f2a-f6d7-44e1-958c-e42bfa6d0247}; !- Layer 1  

