
OS:Version,
  {0b948deb-0b07-4561-9602-d1874d469d71}, ! Handle
  0.9.3;                                  ! Version Identifier

OS:Material,
  {7547a403-54ba-4bb4-936d-020da9d1d6e3}, ! Handle
  Roof Insulation,                        ! Name
  MediumRough,                            ! Roughness
  0.124958,                               ! Thickness {m}
  0.049,                                  ! Conductivity {W/m-K}
  265,                                    ! Density {kg/m3}
  836.8,                                  ! Specific Heat {J/kg-K}
  0.9,                                    ! Thermal Absorptance
  0.7,                                    ! Solar Absorptance
  0.7;                                    ! Visible Absorptance

OS:Material,
  {c6c72591-0d13-4fc6-b2bc-ba695660bfc0}, ! Handle
  Metal Decking,                          ! Name
  MediumSmooth,                           ! Roughness
  0.001524,                               ! Thickness {m}
  45.006,                                 ! Conductivity {W/m-K}
  7680,                                   ! Density {kg/m3}
  418.4,                                  ! Specific Heat {J/kg-K}
  0.9,                                    ! Thermal Absorptance
  0.7,                                    ! Solar Absorptance
  0.3;                                    ! Visible Absorptance

OS:ComponentCost:LineItem,
  {0411bb96-dd41-4da6-8134-52f47e25e879}, ! Handle
  90.1-2001 Res B12 Roof IEAD,            ! Name
  ,                                       ! Type
  Construction,                           ! Line Item Type
  90.1-2001 Res B12 Roof IEAD,            ! Item Name
  ,                                       ! Object End Use Key
  ,                                       ! Quantity {dimensionless}
  49.208,                                 ! Material Cost {$}
  CostPerArea;                            ! Material Cost Units

OS:Construction,
  {b66b33b6-c4b4-4ad0-8a51-e8a28f7406c3}, ! Handle
  90.1-2001 Res B12 Roof IEAD,            ! Name
  ,                                       ! Surface Rendering Name
  {08c3920b-4240-4a47-b407-6075f7fdc58a}, ! Layer 1
  {7547a403-54ba-4bb4-936d-020da9d1d6e3}, ! Layer 2
  {c6c72591-0d13-4fc6-b2bc-ba695660bfc0}; ! Layer 3

OS:Material,
  {08c3920b-4240-4a47-b407-6075f7fdc58a}, ! Handle
  Roof Membrane,                          ! Name
  VeryRough,                              ! Roughness
  0.0095,                                 ! Thickness {m}
  0.16,                                   ! Conductivity {W/m-K}
  1121.29,                                ! Density {kg/m3}
  1460,                                   ! Specific Heat {J/kg-K}
  0.9,                                    ! Thermal Absorptance
  0.7,                                    ! Solar Absorptance
  0.7;                                    ! Visible Absorptance

