
OS:Version,
  {64fc371a-5297-4586-a879-cdda68f7aa8c}, ! Handle
  0.9.3;                                  ! Version Identifier

OS:ComponentCost:LineItem,
  {ee04764b-6279-48fa-8297-3123174c5e2a}, ! Handle
  90.1-2004 Nonres 6B Roof Metal Building, ! Name
  ,                                       ! Type
  Construction,                           ! Line Item Type
  90.1-2004 Nonres 6B Roof Metal Building, ! Item Name
  ,                                       ! Object End Use Key
  ,                                       ! Quantity {dimensionless}
  38.206,                                 ! Material Cost {$}
  CostPerArea;                            ! Material Cost Units

OS:Construction,
  {8249f2b4-a22e-452a-8df3-02ade382c8ad}, ! Handle
  90.1-2004 Nonres 6B Roof Metal Building, ! Name
  ,                                       ! Surface Rendering Name
  {dc3b7ae9-248e-4cb4-a6fc-21fd5b2407ad}, ! Layer 1
  {6bb43a52-b665-403b-b7ad-ff3f3a26d097}; ! Layer 2

OS:Material,
  {dc3b7ae9-248e-4cb4-a6fc-21fd5b2407ad}, ! Handle
  Metal Roofing,                          ! Name
  MediumSmooth,                           ! Roughness
  0.001524,                               ! Thickness {m}
  45.006,                                 ! Conductivity {W/m-K}
  7680,                                   ! Density {kg/m3}
  418.4,                                  ! Specific Heat {J/kg-K}
  0.9,                                    ! Thermal Absorptance
  0.7,                                    ! Solar Absorptance
  0.3;                                    ! Visible Absorptance

OS:Material,
  {6bb43a52-b665-403b-b7ad-ff3f3a26d097}, ! Handle
  Roof Insulation [1],                    ! Name
  MediumRough,                            ! Roughness
  0.123533,                               ! Thickness {m}
  0.049,                                  ! Conductivity {W/m-K}
  265,                                    ! Density {kg/m3}
  836.8,                                  ! Specific Heat {J/kg-K}
  0.9,                                    ! Thermal Absorptance
  0.7,                                    ! Solar Absorptance
  0.7;                                    ! Visible Absorptance

