
OS:Version,
  {48919e48-187a-49be-b8df-4a1a59149b72}, ! Handle
  0.9.3;                                  ! Version Identifier

OS:Construction,
  {1007685c-5c3c-42d6-b87a-382ab44b5e59}, ! Handle
  90.1-2004 Res 6B Ext Slab Unheated - 4in Slab without Carpet, ! Name
  ,                                       ! Surface Rendering Name
  {fda6f5cb-34b6-4e03-b0c8-240c36455f6e}; ! Layer 1

OS:Material,
  {fda6f5cb-34b6-4e03-b0c8-240c36455f6e}, ! Handle
  MAT-CC05 4 HW CONCRETE,                 ! Name
  Rough,                                  ! Roughness
  0.1016,                                 ! Thickness {m}
  1.311,                                  ! Conductivity {W/m-K}
  2240,                                   ! Density {kg/m3}
  836.8,                                  ! Specific Heat {J/kg-K}
  0.9,                                    ! Thermal Absorptance
  0.7,                                    ! Solar Absorptance
  0.7;                                    ! Visible Absorptance

OS:ComponentCost:LineItem,
  {ceb9a099-d9d0-4982-841d-27a00f3a6432}, ! Handle
  90.1-2004 Res 6B Ext Slab Unheated - 4in Slab without Carpet, ! Name
  ,                                       ! Type
  Construction,                           ! Line Item Type
  90.1-2004 Res 6B Ext Slab Unheated - 4in Slab without Carpet, ! Item Name
  ,                                       ! Object End Use Key
  ,                                       ! Quantity {dimensionless}
  45.52,                                  ! Material Cost {$}
  CostPerArea;                            ! Material Cost Units

