
OS:Version,
  {b71d3d2d-0ad9-43c8-b6c6-4585f075976d}, ! Handle
  0.9.3;                                  ! Version Identifier

OS:Material,
  {190f0986-6a87-4739-aa73-bbddaecbf367}, ! Handle
  Wall Insulation,                        ! Name
  MediumRough,                            ! Roughness
  0.0598725,                              ! Thickness {m}
  0.045,                                  ! Conductivity {W/m-K}
  265,                                    ! Density {kg/m3}
  836.8,                                  ! Specific Heat {J/kg-K}
  0.9,                                    ! Thermal Absorptance
  0.7,                                    ! Solar Absorptance
  0.7;                                    ! Visible Absorptance

OS:Material,
  {64c77ff2-13e7-4a64-8fdb-f0234079d51f}, ! Handle
  Metal Siding,                           ! Name
  Smooth,                                 ! Roughness
  0.0015,                                 ! Thickness {m}
  44.96,                                  ! Conductivity {W/m-K}
  7688.86,                                ! Density {kg/m3}
  410,                                    ! Specific Heat {J/kg-K}
  0.9,                                    ! Thermal Absorptance
  0.2,                                    ! Solar Absorptance
  0.2;                                    ! Visible Absorptance

OS:ComponentCost:LineItem,
  {596165a3-e8fd-411c-a543-79a95af1d1e0}, ! Handle
  90.1-1999 Res B8 Ext Wall Metal Building, ! Name
  ,                                       ! Type
  Construction,                           ! Line Item Type
  90.1-1999 Res B8 Ext Wall Metal Building, ! Item Name
  ,                                       ! Object End Use Key
  ,                                       ! Quantity {dimensionless}
  98.78,                                  ! Material Cost {$}
  CostPerArea;                            ! Material Cost Units

OS:Construction,
  {d3a0fab1-20d1-461b-85e1-447fbec7f8d5}, ! Handle
  90.1-1999 Res B8 Ext Wall Metal Building, ! Name
  ,                                       ! Surface Rendering Name
  {64c77ff2-13e7-4a64-8fdb-f0234079d51f}, ! Layer 1
  {190f0986-6a87-4739-aa73-bbddaecbf367}, ! Layer 2
  {828487c6-2a88-48da-8658-d02cb4fab5cb}; ! Layer 3

OS:Material,
  {828487c6-2a88-48da-8658-d02cb4fab5cb}, ! Handle
  1/2IN Gypsum,                           ! Name
  Smooth,                                 ! Roughness
  0.01271,                                ! Thickness {m}
  0.16,                                   ! Conductivity {W/m-K}
  784.9,                                  ! Density {kg/m3}
  830,                                    ! Specific Heat {J/kg-K}
  0.9,                                    ! Thermal Absorptance
  0.92,                                   ! Solar Absorptance
  0.92;                                   ! Visible Absorptance

