
OS:Version,
  {6f9c6112-6d78-406a-a476-b3e422ce26f7}, ! Handle
  0.9.3;                                  ! Version Identifier

OS:Construction,
  {1465f750-f379-4bd2-8100-29ab5c48a427}, ! Handle
  90.1-2004 Nonres 2A Ext Wall Wood-Framed and Other, ! Name
  ,                                       ! Surface Rendering Name
  {fd37156e-80a6-4d2d-bd4a-661a299831c5}, ! Layer 1
  {e2545650-23e7-4ee7-b50a-5ce47cf5aa7e}, ! Layer 2
  {1b558da3-5e3b-4ff8-b439-bc54b6576c9f}; ! Layer 3

OS:Material,
  {fd37156e-80a6-4d2d-bd4a-661a299831c5}, ! Handle
  Wood Siding,                            ! Name
  MediumSmooth,                           ! Roughness
  0.01,                                   ! Thickness {m}
  0.11,                                   ! Conductivity {W/m-K}
  544.62,                                 ! Density {kg/m3}
  1210,                                   ! Specific Heat {J/kg-K}
  0.9,                                    ! Thermal Absorptance
  0.78,                                   ! Solar Absorptance
  0.78;                                   ! Visible Absorptance

OS:Material,
  {e2545650-23e7-4ee7-b50a-5ce47cf5aa7e}, ! Handle
  Wall Insulation [2],                    ! Name
  MediumRough,                            ! Roughness
  0.0746874,                              ! Thickness {m}
  0.045,                                  ! Conductivity {W/m-K}
  265,                                    ! Density {kg/m3}
  836.8,                                  ! Specific Heat {J/kg-K}
  0.9,                                    ! Thermal Absorptance
  0.7,                                    ! Solar Absorptance
  0.7;                                    ! Visible Absorptance

OS:Material,
  {1b558da3-5e3b-4ff8-b439-bc54b6576c9f}, ! Handle
  1/2IN Gypsum,                           ! Name
  Smooth,                                 ! Roughness
  0.01271,                                ! Thickness {m}
  0.16,                                   ! Conductivity {W/m-K}
  784.9,                                  ! Density {kg/m3}
  830,                                    ! Specific Heat {J/kg-K}
  0.9,                                    ! Thermal Absorptance
  0.92,                                   ! Solar Absorptance
  0.92;                                   ! Visible Absorptance

OS:ComponentCost:LineItem,
  {d8de160c-0457-4901-91e2-284717beaba6}, ! Handle
  90.1-2004 Nonres 2A Ext Wall Wood-Framed and Other, ! Name
  ,                                       ! Type
  Construction,                           ! Line Item Type
  90.1-2004 Nonres 2A Ext Wall Wood-Framed and Other, ! Item Name
  ,                                       ! Object End Use Key
  ,                                       ! Quantity {dimensionless}
  73.056,                                 ! Material Cost {$}
  CostPerArea;                            ! Material Cost Units

OS:ComponentData,
  {8892ead2-d278-47c8-885a-766b6d9abfd6}, ! Handle
  Component Data 1,                       ! Name
  {fe485112-5e6b-40d0-9e35-47f8aff185c7}, ! UUID
  {47239e8c-6e53-4ebc-b851-b33d6e4a0862}, ! Version UUID
  1363981638,                             ! Creation Timestamp
  1363981638,                             ! Version Timestamp
  {1465f750-f379-4bd2-8100-29ab5c48a427}, ! Name of Object 1
  {fd37156e-80a6-4d2d-bd4a-661a299831c5}, ! Name of Object 2
  {e2545650-23e7-4ee7-b50a-5ce47cf5aa7e}, ! Name of Object 3
  {1b558da3-5e3b-4ff8-b439-bc54b6576c9f}, ! Name of Object 4
  {d8de160c-0457-4901-91e2-284717beaba6}; ! Name of Object 5

