
OS:Version,
  {5ae11d8e-faf8-4399-8ac1-c31487170da2}, ! Handle
  0.9.3;                                  ! Version Identifier

OS:Construction,
  {819dde6c-640b-4379-848a-4b4100ba5230}, ! Handle
  90.1-2004 Nonres 2A Ext Wall Wood-Framed and Other, ! Name
  ,                                       ! Surface Rendering Name
  {e1f287ca-39f2-49b0-9551-9e1eff666c1d}, ! Layer 1
  {cf8f1295-41f2-426f-be9d-c513dec1d233}, ! Layer 2
  {1a75c693-eddb-4cb6-8457-1c4af1848721}; ! Layer 3

OS:Material,
  {e1f287ca-39f2-49b0-9551-9e1eff666c1d}, ! Handle
  Wood Siding,                            ! Name
  MediumSmooth,                           ! Roughness
  0.01,                                   ! Thickness {m}
  0.11,                                   ! Conductivity {W/m-K}
  544.62,                                 ! Density {kg/m3}
  1210,                                   ! Specific Heat {J/kg-K}
  0.9,                                    ! Thermal Absorptance
  0.78,                                   ! Solar Absorptance
  0.78;                                   ! Visible Absorptance

OS:Material,
  {cf8f1295-41f2-426f-be9d-c513dec1d233}, ! Handle
  Wall Insulation [2],                    ! Name
  MediumRough,                            ! Roughness
  0.0746874,                              ! Thickness {m}
  0.045,                                  ! Conductivity {W/m-K}
  265,                                    ! Density {kg/m3}
  836.8,                                  ! Specific Heat {J/kg-K}
  0.9,                                    ! Thermal Absorptance
  0.7,                                    ! Solar Absorptance
  0.7;                                    ! Visible Absorptance

OS:Material,
  {1a75c693-eddb-4cb6-8457-1c4af1848721}, ! Handle
  1/2IN Gypsum,                           ! Name
  Smooth,                                 ! Roughness
  0.01271,                                ! Thickness {m}
  0.16,                                   ! Conductivity {W/m-K}
  784.9,                                  ! Density {kg/m3}
  830,                                    ! Specific Heat {J/kg-K}
  0.9,                                    ! Thermal Absorptance
  0.92,                                   ! Solar Absorptance
  0.92;                                   ! Visible Absorptance

OS:ComponentCost:LineItem,
  {553bb68d-f665-468b-97c3-06144446ae1f}, ! Handle
  90.1-2004 Nonres 2A Ext Wall Wood-Framed and Other, ! Name
  ,                                       ! Type
  Construction,                           ! Line Item Type
  90.1-2004 Nonres 2A Ext Wall Wood-Framed and Other, ! Item Name
  ,                                       ! Object End Use Key
  ,                                       ! Quantity {dimensionless}
  73.056,                                 ! Material Cost {$}
  CostPerArea;                            ! Material Cost Units

