
OS:Version,
  {15f73c27-6707-4e13-9765-dc02f1c642a7}, ! Handle
  0.9.3;                                  ! Version Identifier

OS:Material,
  {5144da59-cdb5-42b3-8aa1-12eae889d796}, ! Handle
  MAT-CC05 8 HW CONCRETE,                 ! Name
  Rough,                                  ! Roughness
  0.20321,                                ! Thickness {m}
  1.311,                                  ! Conductivity {W/m-K}
  2240,                                   ! Density {kg/m3}
  836.8,                                  ! Specific Heat {J/kg-K}
  0.9,                                    ! Thermal Absorptance
  0.7,                                    ! Solar Absorptance
  0.7;                                    ! Visible Absorptance

OS:ComponentCost:LineItem,
  {b61e453a-16af-4e56-bf25-6e4b90ebbf06}, ! Handle
  90.1-2007 Res 3A Ext Slab Unheated - 8in Slab without Carpet, ! Name
  ,                                       ! Type
  Construction,                           ! Line Item Type
  90.1-2007 Res 3A Ext Slab Unheated - 8in Slab without Carpet, ! Item Name
  ,                                       ! Object End Use Key
  ,                                       ! Quantity {dimensionless}
  45.52,                                  ! Material Cost {$}
  CostPerArea;                            ! Material Cost Units

OS:Construction,
  {cc36cc3a-1319-4762-9102-0a7e93426275}, ! Handle
  90.1-2007 Res 3A Ext Slab Unheated - 8in Slab without Carpet, ! Name
  ,                                       ! Surface Rendering Name
  {5144da59-cdb5-42b3-8aa1-12eae889d796}; ! Layer 1

