
OS:Version,
  {70905d86-1656-43a8-815a-e726971f9c05}, ! Handle
  0.9.3;                                  ! Version Identifier

OS:Material,
  {7566e5da-2c81-466a-9cee-44fa05024884}, ! Handle
  1/2IN Gypsum,                           ! Name
  Smooth,                                 ! Roughness
  0.01271,                                ! Thickness {m}
  0.16,                                   ! Conductivity {W/m-K}
  784.9,                                  ! Density {kg/m3}
  830,                                    ! Specific Heat {J/kg-K}
  0.9,                                    ! Thermal Absorptance
  0.92,                                   ! Solar Absorptance
  0.92;                                   ! Visible Absorptance

OS:Material,
  {d86f83c8-8947-4755-9871-64f2ee7c8c6a}, ! Handle
  8IN Concrete HW,                        ! Name
  MediumRough,                            ! Roughness
  0.2033,                                 ! Thickness {m}
  1.7296,                                 ! Conductivity {W/m-K}
  2243,                                   ! Density {kg/m3}
  837,                                    ! Specific Heat {J/kg-K}
  0.9,                                    ! Thermal Absorptance
  0.65,                                   ! Solar Absorptance
  0.65;                                   ! Visible Absorptance

OS:ComponentCost:LineItem,
  {16fe028e-6ca6-4d5b-bd83-eae58489cabd}, ! Handle
  90.1-1999 Nonres B17 Ext Wall Mass,     ! Name
  ,                                       ! Type
  Construction,                           ! Line Item Type
  90.1-1999 Nonres B17 Ext Wall Mass,     ! Item Name
  ,                                       ! Object End Use Key
  ,                                       ! Quantity {dimensionless}
  61.418,                                 ! Material Cost {$}
  CostPerArea;                            ! Material Cost Units

OS:Material,
  {bec9246e-61c8-486a-ac82-5b1b39d0b233}, ! Handle
  Wall Insulation [5],                    ! Name
  MediumRough,                            ! Roughness
  0.0453274,                              ! Thickness {m}
  0.0432,                                 ! Conductivity {W/m-K}
  91,                                     ! Density {kg/m3}
  837,                                    ! Specific Heat {J/kg-K}
  0.9,                                    ! Thermal Absorptance
  0.5,                                    ! Solar Absorptance
  0.5;                                    ! Visible Absorptance

OS:Material,
  {32614612-e1fb-47f1-a3e6-13d238d9db7c}, ! Handle
  1IN Stucco,                             ! Name
  Smooth,                                 ! Roughness
  0.0253,                                 ! Thickness {m}
  0.6918,                                 ! Conductivity {W/m-K}
  1858,                                   ! Density {kg/m3}
  837,                                    ! Specific Heat {J/kg-K}
  0.9,                                    ! Thermal Absorptance
  0.92,                                   ! Solar Absorptance
  0.92;                                   ! Visible Absorptance

OS:Construction,
  {a9888a0f-00c4-450c-a47c-fe2eeee1435e}, ! Handle
  90.1-1999 Nonres B17 Ext Wall Mass,     ! Name
  ,                                       ! Surface Rendering Name
  {32614612-e1fb-47f1-a3e6-13d238d9db7c}, ! Layer 1
  {d86f83c8-8947-4755-9871-64f2ee7c8c6a}, ! Layer 2
  {bec9246e-61c8-486a-ac82-5b1b39d0b233}, ! Layer 3
  {7566e5da-2c81-466a-9cee-44fa05024884}; ! Layer 4

