
OS:Version,
  {741960be-6c4d-42b3-8eaf-482da05972a8}, !- Handle
  1.1.0;                                  !- Version Identifier

OS:Construction,
  {0ee1da18-b855-467e-8270-e24ffbf410d2}, !- Handle
  Dbl LoE (e2=.1) Clr 3mm/13mm Air,       !- Name
  ,                                       !- Surface Rendering Name
  {976e9ac7-e70c-4184-ac5a-df310f3b2a39}, !- Layer 1
  {7759fb2a-a7cd-4a65-bc7b-8cdac9db6c76}, !- Layer 2
  {3ec9b15d-de31-44b6-832c-929b1b7e8731}; !- Layer 3

OS:WindowMaterial:Glazing,
  {976e9ac7-e70c-4184-ac5a-df310f3b2a39}, !- Handle
  LoE CLEAR 3MM,                          !- Name
  SpectralAverage,                        !- Optical Data Type
  ,                                       !- Window Glass Spectral Data Set Name
  0.003,                                  !- Thickness {m}
  0.63,                                   !- Solar Transmittance at Normal Incidence
  0.19,                                   !- Front Side Solar Reflectance at Normal Incidence
  0.22,                                   !- Back Side Solar Reflectance at Normal Incidence
  0.85,                                   !- Visible Transmittance at Normal Incidence
  0.056,                                  !- Front Side Visible Reflectance at Normal Incidence
  0.079,                                  !- Back Side Visible Reflectance at Normal Incidence
  0,                                      !- Infrared Transmittance at Normal Incidence
  0.84,                                   !- Front Side Infrared Hemispherical Emissivity
  0.1,                                    !- Back Side Infrared Hemispherical Emissivity
  0.9;                                    !- Conductivity {W/m-K}

OS:WindowMaterial:Gas,
  {7759fb2a-a7cd-4a65-bc7b-8cdac9db6c76}, !- Handle
  AIR 13MM,                               !- Name
  Air,                                    !- Gas Type
  0.0127;                                 !- Thickness {m}

OS:WindowMaterial:Glazing,
  {3ec9b15d-de31-44b6-832c-929b1b7e8731}, !- Handle
  CLEAR 3MM,                              !- Name
  SpectralAverage,                        !- Optical Data Type
  ,                                       !- Window Glass Spectral Data Set Name
  0.003,                                  !- Thickness {m}
  0.837,                                  !- Solar Transmittance at Normal Incidence
  0.075,                                  !- Front Side Solar Reflectance at Normal Incidence
  0.075,                                  !- Back Side Solar Reflectance at Normal Incidence
  0.898,                                  !- Visible Transmittance at Normal Incidence
  0.081,                                  !- Front Side Visible Reflectance at Normal Incidence
  0.081,                                  !- Back Side Visible Reflectance at Normal Incidence
  0,                                      !- Infrared Transmittance at Normal Incidence
  0.84,                                   !- Front Side Infrared Hemispherical Emissivity
  0.84,                                   !- Back Side Infrared Hemispherical Emissivity
  0.9;                                    !- Conductivity {W/m-K}

