
OS:Version,
  {ab7da7f4-9a6e-4f38-aa5f-083c474e8fc3}, ! Handle
  0.9.3;                                  ! Version Identifier

OS:WindowMaterial:Glazing,
  {51194da4-0b77-4a35-a390-e74de83c0c85}, ! Handle
  Theoretical Glass [27],                 ! Name
  SpectralAverage,                        ! Optical Data Type
  ,                                       ! Window Glass Spectral Data Set Name
  0.003,                                  ! Thickness {m}
  0.255355,                               ! Solar Transmittance at Normal Incidence
  0.694645,                               ! Front Side Solar Reflectance at Normal Incidence
  0.694645,                               ! Back Side Solar Reflectance at Normal Incidence
  0.258624,                               ! Visible Transmittance at Normal Incidence
  0.691376,                               ! Front Side Visible Reflectance at Normal Incidence
  0.691376,                               ! Back Side Visible Reflectance at Normal Incidence
  0,                                      ! Infrared Transmittance at Normal Incidence
  0.9,                                    ! Front Side Infrared Hemispherical Emissivity
  0.9,                                    ! Back Side Infrared Hemispherical Emissivity
  0.0134755;                              ! Conductivity {W/m-K}

OS:Construction,
  {31b95449-0277-4736-8cbd-88cbe229fec1}, ! Handle
  90.1-1999 Nonres B10 Window Fixed,      ! Name
  ,                                       ! Surface Rendering Name
  {51194da4-0b77-4a35-a390-e74de83c0c85}; ! Layer 1

OS:ComponentCost:LineItem,
  {a345b871-43ae-4279-9fc9-e4dd5903070e}, ! Handle
  90.1-1999 Nonres B10 Window Fixed,      ! Name
  ,                                       ! Type
  Construction,                           ! Line Item Type
  90.1-1999 Nonres B10 Window Fixed,      ! Item Name
  ,                                       ! Object End Use Key
  ,                                       ! Quantity {dimensionless}
  560.656,                                ! Material Cost {$}
  CostPerArea;                            ! Material Cost Units

