
OS:Version,
  {1aec1030-76b9-4759-bfb3-10f1c2af65fb}, ! Handle
  0.9.3;                                  ! Version Identifier

OS:Construction,
  {e478e3f7-3a5c-41ca-994a-4ae47e1178a0}, ! Handle
  90.1-1999 Nonres B10 Window Fixed,      ! Name
  ,                                       ! Surface Rendering Name
  {4832dfdc-a895-4f83-92d0-f29348787d5c}; ! Layer 1

OS:WindowMaterial:Glazing,
  {4832dfdc-a895-4f83-92d0-f29348787d5c}, ! Handle
  Theoretical Glass [27],                 ! Name
  SpectralAverage,                        ! Optical Data Type
  ,                                       ! Window Glass Spectral Data Set Name
  0.003,                                  ! Thickness {m}
  0.255355,                               ! Solar Transmittance at Normal Incidence
  0.694645,                               ! Front Side Solar Reflectance at Normal Incidence
  0.694645,                               ! Back Side Solar Reflectance at Normal Incidence
  0.258624,                               ! Visible Transmittance at Normal Incidence
  0.691376,                               ! Front Side Visible Reflectance at Normal Incidence
  0.691376,                               ! Back Side Visible Reflectance at Normal Incidence
  0,                                      ! Infrared Transmittance at Normal Incidence
  0.9,                                    ! Front Side Infrared Hemispherical Emissivity
  0.9,                                    ! Back Side Infrared Hemispherical Emissivity
  0.0134755;                              ! Conductivity {W/m-K}

OS:ComponentCost:LineItem,
  {2ef2288d-8545-49c4-b8b1-a6a7fbf67e5f}, ! Handle
  90.1-1999 Nonres B10 Window Fixed,      ! Name
  ,                                       ! Type
  Construction,                           ! Line Item Type
  90.1-1999 Nonres B10 Window Fixed,      ! Item Name
  ,                                       ! Object End Use Key
  ,                                       ! Quantity {dimensionless}
  560.656,                                ! Material Cost {$}
  CostPerArea;                            ! Material Cost Units

OS:ComponentData,
  {d6deb947-b931-4245-9561-49d2eb1dc1ce}, ! Handle
  Component Data 1,                       ! Name
  {e4f76f91-2a74-4e8b-8ca6-939175a524ec}, ! UUID
  {1b1f8486-e18d-4fc1-bc04-4f15c245ff8e}, ! Version UUID
  1363981084,                             ! Creation Timestamp
  1363981084,                             ! Version Timestamp
  {e478e3f7-3a5c-41ca-994a-4ae47e1178a0}, ! Name of Object 1
  {4832dfdc-a895-4f83-92d0-f29348787d5c}, ! Name of Object 2
  {2ef2288d-8545-49c4-b8b1-a6a7fbf67e5f}; ! Name of Object 3

