
OS:Version,
  {8ae29244-f859-484e-b408-9bc37e9eb72e}, !- Handle
  1.1.0;                                  !- Version Identifier

OS:Construction,
  {7b80e582-1470-4e0d-bfa6-1b86c8773ff2}, !- Handle
  Dbl Blue 6mm/13mm Arg,                  !- Name
  ,                                       !- Surface Rendering Name
  {e731eaba-9447-47a7-9a81-4a9ff1a52d86}, !- Layer 1
  {3c58f0ae-72fb-4e32-a6e0-9cc751e1f2c7}, !- Layer 2
  {23ac3509-4641-4968-98a0-a9c3e85a2afc}; !- Layer 3

OS:WindowMaterial:Glazing,
  {e731eaba-9447-47a7-9a81-4a9ff1a52d86}, !- Handle
  BLUE 6MM,                               !- Name
  SpectralAverage,                        !- Optical Data Type
  ,                                       !- Window Glass Spectral Data Set Name
  0.006,                                  !- Thickness {m}
  0.48,                                   !- Solar Transmittance at Normal Incidence
  0.05,                                   !- Front Side Solar Reflectance at Normal Incidence
  0.05,                                   !- Back Side Solar Reflectance at Normal Incidence
  0.57,                                   !- Visible Transmittance at Normal Incidence
  0.06,                                   !- Front Side Visible Reflectance at Normal Incidence
  0.06,                                   !- Back Side Visible Reflectance at Normal Incidence
  0,                                      !- Infrared Transmittance at Normal Incidence
  0.84,                                   !- Front Side Infrared Hemispherical Emissivity
  0.84,                                   !- Back Side Infrared Hemispherical Emissivity
  0.9;                                    !- Conductivity {W/m-K}

OS:WindowMaterial:Gas,
  {3c58f0ae-72fb-4e32-a6e0-9cc751e1f2c7}, !- Handle
  ARGON 13MM,                             !- Name
  Argon,                                  !- Gas Type
  0.0127;                                 !- Thickness {m}

OS:WindowMaterial:Glazing,
  {23ac3509-4641-4968-98a0-a9c3e85a2afc}, !- Handle
  CLEAR 6MM,                              !- Name
  SpectralAverage,                        !- Optical Data Type
  ,                                       !- Window Glass Spectral Data Set Name
  0.006,                                  !- Thickness {m}
  0.775,                                  !- Solar Transmittance at Normal Incidence
  0.071,                                  !- Front Side Solar Reflectance at Normal Incidence
  0.071,                                  !- Back Side Solar Reflectance at Normal Incidence
  0.881,                                  !- Visible Transmittance at Normal Incidence
  0.08,                                   !- Front Side Visible Reflectance at Normal Incidence
  0.08,                                   !- Back Side Visible Reflectance at Normal Incidence
  0,                                      !- Infrared Transmittance at Normal Incidence
  0.84,                                   !- Front Side Infrared Hemispherical Emissivity
  0.84,                                   !- Back Side Infrared Hemispherical Emissivity
  0.9;                                    !- Conductivity {W/m-K}

