
OS:Version,
  {ca46338b-a0c2-4248-b842-5b759813d3bc}, ! Handle
  0.9.3;                                  ! Version Identifier

OS:Material,
  {8784cad0-52e9-4a56-a7d0-0d2dc09ebb56}, ! Handle
  Wood Siding,                            ! Name
  MediumSmooth,                           ! Roughness
  0.01,                                   ! Thickness {m}
  0.11,                                   ! Conductivity {W/m-K}
  544.62,                                 ! Density {kg/m3}
  1210,                                   ! Specific Heat {J/kg-K}
  0.9,                                    ! Thermal Absorptance
  0.78,                                   ! Solar Absorptance
  0.78;                                   ! Visible Absorptance

OS:ComponentCost:LineItem,
  {3a72d9a8-d973-4bc6-956c-edd839249880}, ! Handle
  90.1-1999 Res B13 Ext Wall Wood-Framed and Other, ! Name
  ,                                       ! Type
  Construction,                           ! Line Item Type
  90.1-1999 Res B13 Ext Wall Wood-Framed and Other, ! Item Name
  ,                                       ! Object End Use Key
  ,                                       ! Quantity {dimensionless}
  73.056,                                 ! Material Cost {$}
  CostPerArea;                            ! Material Cost Units

OS:Construction,
  {8e4fe738-e92c-4147-ba5d-1329bf06dc10}, ! Handle
  90.1-1999 Res B13 Ext Wall Wood-Framed and Other, ! Name
  ,                                       ! Surface Rendering Name
  {8784cad0-52e9-4a56-a7d0-0d2dc09ebb56}, ! Layer 1
  {59226391-22e2-4f00-a1a4-b8ef38e4cc1d}, ! Layer 2
  {4d014a7c-bb16-46ae-8d3b-9106d64105e8}; ! Layer 3

OS:Material,
  {59226391-22e2-4f00-a1a4-b8ef38e4cc1d}, ! Handle
  Wall Insulation [2],                    ! Name
  MediumRough,                            ! Roughness
  0.0746874,                              ! Thickness {m}
  0.045,                                  ! Conductivity {W/m-K}
  265,                                    ! Density {kg/m3}
  836.8,                                  ! Specific Heat {J/kg-K}
  0.9,                                    ! Thermal Absorptance
  0.7,                                    ! Solar Absorptance
  0.7;                                    ! Visible Absorptance

OS:Material,
  {4d014a7c-bb16-46ae-8d3b-9106d64105e8}, ! Handle
  1/2IN Gypsum,                           ! Name
  Smooth,                                 ! Roughness
  0.01271,                                ! Thickness {m}
  0.16,                                   ! Conductivity {W/m-K}
  784.9,                                  ! Density {kg/m3}
  830,                                    ! Specific Heat {J/kg-K}
  0.9,                                    ! Thermal Absorptance
  0.92,                                   ! Solar Absorptance
  0.92;                                   ! Visible Absorptance

