
OS:Version,
  {5611f3f4-a5e2-450a-8eef-fb827857f7ee}, ! Handle
  0.9.3;                                  ! Version Identifier

OS:ComponentCost:LineItem,
  {562b2e6c-b046-4425-864c-3a79eaedd2b0}, ! Handle
  90.1-2004 Res 4B Ext Wall Mass,         ! Name
  ,                                       ! Type
  Construction,                           ! Line Item Type
  90.1-2004 Res 4B Ext Wall Mass,         ! Item Name
  ,                                       ! Object End Use Key
  ,                                       ! Quantity {dimensionless}
  63.663,                                 ! Material Cost {$}
  CostPerArea;                            ! Material Cost Units

OS:Construction,
  {6a99277f-f56d-44a8-927e-0e453f662b84}, ! Handle
  90.1-2004 Res 4B Ext Wall Mass,         ! Name
  ,                                       ! Surface Rendering Name
  {3d88baa2-76f4-4e60-ac16-5194ca74c48e}, ! Layer 1
  {fcf0feeb-e9fa-4212-82f2-d9c0ab3f3aaf}, ! Layer 2
  {543d4f11-6f20-4327-b0c1-38d9ac502126}, ! Layer 3
  {a0157cc2-cf1c-48b4-9f0e-742dc0a43074}; ! Layer 4

OS:Material,
  {3d88baa2-76f4-4e60-ac16-5194ca74c48e}, ! Handle
  1IN Stucco,                             ! Name
  Smooth,                                 ! Roughness
  0.0253,                                 ! Thickness {m}
  0.6918,                                 ! Conductivity {W/m-K}
  1858,                                   ! Density {kg/m3}
  837,                                    ! Specific Heat {J/kg-K}
  0.9,                                    ! Thermal Absorptance
  0.92,                                   ! Solar Absorptance
  0.92;                                   ! Visible Absorptance

OS:Material,
  {fcf0feeb-e9fa-4212-82f2-d9c0ab3f3aaf}, ! Handle
  8IN Concrete HW,                        ! Name
  MediumRough,                            ! Roughness
  0.2033,                                 ! Thickness {m}
  1.7296,                                 ! Conductivity {W/m-K}
  2243,                                   ! Density {kg/m3}
  837,                                    ! Specific Heat {J/kg-K}
  0.9,                                    ! Thermal Absorptance
  0.65,                                   ! Solar Absorptance
  0.65;                                   ! Visible Absorptance

OS:Material,
  {543d4f11-6f20-4327-b0c1-38d9ac502126}, ! Handle
  Wall Insulation [7],                    ! Name
  MediumRough,                            ! Roughness
  0.056577,                               ! Thickness {m}
  0.0432,                                 ! Conductivity {W/m-K}
  91,                                     ! Density {kg/m3}
  837,                                    ! Specific Heat {J/kg-K}
  0.9,                                    ! Thermal Absorptance
  0.5,                                    ! Solar Absorptance
  0.5;                                    ! Visible Absorptance

OS:Material,
  {a0157cc2-cf1c-48b4-9f0e-742dc0a43074}, ! Handle
  1/2IN Gypsum,                           ! Name
  Smooth,                                 ! Roughness
  0.01271,                                ! Thickness {m}
  0.16,                                   ! Conductivity {W/m-K}
  784.9,                                  ! Density {kg/m3}
  830,                                    ! Specific Heat {J/kg-K}
  0.9,                                    ! Thermal Absorptance
  0.92,                                   ! Solar Absorptance
  0.92;                                   ! Visible Absorptance

