
OS:Version,
  {8cd55c4b-f879-4f44-9a59-4f6c41a3eeb3}, ! Handle
  0.9.3;                                  ! Version Identifier

OS:Material,
  {3353208f-edef-4edf-aa7f-afa3828a765a}, ! Handle
  Wood Shingles,                          ! Name
  VeryRough,                              ! Roughness
  0.0178,                                 ! Thickness {m}
  0.115,                                  ! Conductivity {W/m-K}
  513,                                    ! Density {kg/m3}
  1255,                                   ! Specific Heat {J/kg-K}
  0.9,                                    ! Thermal Absorptance
  0.78,                                   ! Solar Absorptance
  0.78;                                   ! Visible Absorptance

OS:Construction,
  {9fcbfd55-421d-4337-b1d9-9ddbedee22f9}, ! Handle
  189.1-2009 Res 1A Roof Attic and Other, ! Name
  ,                                       ! Surface Rendering Name
  {3353208f-edef-4edf-aa7f-afa3828a765a}, ! Layer 1
  {3679c081-61bc-44ba-952b-19de0d7cd089}, ! Layer 2
  {482c4cac-f0a9-4ca6-954a-036520489a93}, ! Layer 3
  {4dfc5874-028b-4a92-be83-ad794b2cc4b0}; ! Layer 4

OS:Material,
  {3679c081-61bc-44ba-952b-19de0d7cd089}, ! Handle
  1IN Wood Decking,                       ! Name
  MediumSmooth,                           ! Roughness
  0.0254,                                 ! Thickness {m}
  0.1211,                                 ! Conductivity {W/m-K}
  593,                                    ! Density {kg/m3}
  2510,                                   ! Specific Heat {J/kg-K}
  0.9,                                    ! Thermal Absorptance
  0.78,                                   ! Solar Absorptance
  0.78;                                   ! Visible Absorptance

OS:Material,
  {482c4cac-f0a9-4ca6-954a-036520489a93}, ! Handle
  Roof Insulation [23],                   ! Name
  MediumRough,                            ! Roughness
  0.375211,                               ! Thickness {m}
  0.049,                                  ! Conductivity {W/m-K}
  265,                                    ! Density {kg/m3}
  836.8,                                  ! Specific Heat {J/kg-K}
  0.9,                                    ! Thermal Absorptance
  0.7,                                    ! Solar Absorptance
  0.7;                                    ! Visible Absorptance

OS:Material,
  {4dfc5874-028b-4a92-be83-ad794b2cc4b0}, ! Handle
  1/2IN Gypsum,                           ! Name
  Smooth,                                 ! Roughness
  0.01271,                                ! Thickness {m}
  0.16,                                   ! Conductivity {W/m-K}
  784.9,                                  ! Density {kg/m3}
  830,                                    ! Specific Heat {J/kg-K}
  0.9,                                    ! Thermal Absorptance
  0.92,                                   ! Solar Absorptance
  0.92;                                   ! Visible Absorptance

OS:ComponentCost:LineItem,
  {6266a032-c3f0-418a-90cf-fc81d4cb101c}, ! Handle
  189.1-2009 Res 1A Roof Attic and Other, ! Name
  ,                                       ! Type
  Construction,                           ! Line Item Type
  189.1-2009 Res 1A Roof Attic and Other, ! Item Name
  ,                                       ! Object End Use Key
  ,                                       ! Quantity {dimensionless}
  36.871,                                 ! Material Cost {$}
  CostPerArea;                            ! Material Cost Units

