
OS:Version,
  {8891e4f1-776d-4b2e-aa08-3061e235fbae}, ! Handle
  0.9.3;                                  ! Version Identifier

OS:Construction,
  {b336b1fd-acbb-411a-97ae-28fa35935bfc}, ! Handle
  90.1-2001 Nonres B10 Ext Wall Wood-Framed and Other, ! Name
  ,                                       ! Surface Rendering Name
  {f6fac337-acdc-430a-a56d-8dcbf8c37508}, ! Layer 1
  {00135ded-1ee7-49b3-a827-c09a5b33b85b}, ! Layer 2
  {45df9e76-eaab-4f47-9b8a-f8014771a77c}; ! Layer 3

OS:Material,
  {f6fac337-acdc-430a-a56d-8dcbf8c37508}, ! Handle
  Wood Siding,                            ! Name
  MediumSmooth,                           ! Roughness
  0.01,                                   ! Thickness {m}
  0.11,                                   ! Conductivity {W/m-K}
  544.62,                                 ! Density {kg/m3}
  1210,                                   ! Specific Heat {J/kg-K}
  0.9,                                    ! Thermal Absorptance
  0.78,                                   ! Solar Absorptance
  0.78;                                   ! Visible Absorptance

OS:Material,
  {00135ded-1ee7-49b3-a827-c09a5b33b85b}, ! Handle
  Wall Insulation [2],                    ! Name
  MediumRough,                            ! Roughness
  0.0746874,                              ! Thickness {m}
  0.045,                                  ! Conductivity {W/m-K}
  265,                                    ! Density {kg/m3}
  836.8,                                  ! Specific Heat {J/kg-K}
  0.9,                                    ! Thermal Absorptance
  0.7,                                    ! Solar Absorptance
  0.7;                                    ! Visible Absorptance

OS:Material,
  {45df9e76-eaab-4f47-9b8a-f8014771a77c}, ! Handle
  1/2IN Gypsum,                           ! Name
  Smooth,                                 ! Roughness
  0.01271,                                ! Thickness {m}
  0.16,                                   ! Conductivity {W/m-K}
  784.9,                                  ! Density {kg/m3}
  830,                                    ! Specific Heat {J/kg-K}
  0.9,                                    ! Thermal Absorptance
  0.92,                                   ! Solar Absorptance
  0.92;                                   ! Visible Absorptance

OS:ComponentCost:LineItem,
  {4015b6dc-dcd1-4fb0-bdff-31482515626b}, ! Handle
  90.1-2001 Nonres B10 Ext Wall Wood-Framed and Other, ! Name
  ,                                       ! Type
  Construction,                           ! Line Item Type
  90.1-2001 Nonres B10 Ext Wall Wood-Framed and Other, ! Item Name
  ,                                       ! Object End Use Key
  ,                                       ! Quantity {dimensionless}
  73.056,                                 ! Material Cost {$}
  CostPerArea;                            ! Material Cost Units

