
OS:Version,
  {708eb105-04f2-46e6-96a3-0b267dbbadce}, ! Handle
  0.9.3;                                  ! Version Identifier

OS:Construction,
  {b86ab4cb-ad1a-4fa7-ab4e-87ba32ab0bcf}, ! Handle
  90.1-2001 Nonres B10 Ext Wall Wood-Framed and Other, ! Name
  ,                                       ! Surface Rendering Name
  {ca344816-616c-417c-8b4a-bf0843b44ccc}, ! Layer 1
  {c5cbeb32-58b1-4e6c-a444-b43d50915ce6}, ! Layer 2
  {ac6c68fa-9b7f-47f8-8188-6fed397038ae}; ! Layer 3

OS:Material,
  {ca344816-616c-417c-8b4a-bf0843b44ccc}, ! Handle
  Wood Siding,                            ! Name
  MediumSmooth,                           ! Roughness
  0.01,                                   ! Thickness {m}
  0.11,                                   ! Conductivity {W/m-K}
  544.62,                                 ! Density {kg/m3}
  1210,                                   ! Specific Heat {J/kg-K}
  0.9,                                    ! Thermal Absorptance
  0.78,                                   ! Solar Absorptance
  0.78;                                   ! Visible Absorptance

OS:Material,
  {c5cbeb32-58b1-4e6c-a444-b43d50915ce6}, ! Handle
  Wall Insulation [2],                    ! Name
  MediumRough,                            ! Roughness
  0.0746874,                              ! Thickness {m}
  0.045,                                  ! Conductivity {W/m-K}
  265,                                    ! Density {kg/m3}
  836.8,                                  ! Specific Heat {J/kg-K}
  0.9,                                    ! Thermal Absorptance
  0.7,                                    ! Solar Absorptance
  0.7;                                    ! Visible Absorptance

OS:Material,
  {ac6c68fa-9b7f-47f8-8188-6fed397038ae}, ! Handle
  1/2IN Gypsum,                           ! Name
  Smooth,                                 ! Roughness
  0.01271,                                ! Thickness {m}
  0.16,                                   ! Conductivity {W/m-K}
  784.9,                                  ! Density {kg/m3}
  830,                                    ! Specific Heat {J/kg-K}
  0.9,                                    ! Thermal Absorptance
  0.92,                                   ! Solar Absorptance
  0.92;                                   ! Visible Absorptance

OS:ComponentCost:LineItem,
  {8d6a4cb8-ec66-40ec-ab64-41ccb677b7f2}, ! Handle
  90.1-2001 Nonres B10 Ext Wall Wood-Framed and Other, ! Name
  ,                                       ! Type
  Construction,                           ! Line Item Type
  90.1-2001 Nonres B10 Ext Wall Wood-Framed and Other, ! Item Name
  ,                                       ! Object End Use Key
  ,                                       ! Quantity {dimensionless}
  73.056,                                 ! Material Cost {$}
  CostPerArea;                            ! Material Cost Units

OS:ComponentData,
  {e6155b8e-3c6d-434c-9ce4-901b8ab40025}, ! Handle
  Component Data 1,                       ! Name
  {8a8d9f66-1675-4945-92c2-c5f2a1fd2a9b}, ! UUID
  {401866d7-9c79-443c-a87e-a2ccd883c760}, ! Version UUID
  1363981339,                             ! Creation Timestamp
  1363981339,                             ! Version Timestamp
  {b86ab4cb-ad1a-4fa7-ab4e-87ba32ab0bcf}, ! Name of Object 1
  {ca344816-616c-417c-8b4a-bf0843b44ccc}, ! Name of Object 2
  {c5cbeb32-58b1-4e6c-a444-b43d50915ce6}, ! Name of Object 3
  {ac6c68fa-9b7f-47f8-8188-6fed397038ae}, ! Name of Object 4
  {8d6a4cb8-ec66-40ec-ab64-41ccb677b7f2}; ! Name of Object 5

