
OS:Version,
  {12cd9a91-b203-4405-b9c0-999401058791}, ! Handle
  0.9.3;                                  ! Version Identifier

OS:Construction,
  {dd468222-e04b-46bb-92b2-a2402d65fbba}, ! Handle
  90.1-1999 Nonres B12 Skylight without Curb, ! Name
  ,                                       ! Surface Rendering Name
  {b6cf1636-6bfd-4b04-91bd-e6448385309d}; ! Layer 1

OS:WindowMaterial:Glazing,
  {b6cf1636-6bfd-4b04-91bd-e6448385309d}, ! Handle
  Theoretical Glass [12],                 ! Name
  SpectralAverage,                        ! Optical Data Type
  ,                                       ! Window Glass Spectral Data Set Name
  0.003,                                  ! Thickness {m}
  0.595954,                               ! Solar Transmittance at Normal Incidence
  0.354046,                               ! Front Side Solar Reflectance at Normal Incidence
  0.354046,                               ! Back Side Solar Reflectance at Normal Incidence
  0.671296,                               ! Visible Transmittance at Normal Incidence
  0.278704,                               ! Front Side Visible Reflectance at Normal Incidence
  0.278704,                               ! Back Side Visible Reflectance at Normal Incidence
  0,                                      ! Infrared Transmittance at Normal Incidence
  0.999,                                  ! Front Side Infrared Hemispherical Emissivity
  0.999,                                  ! Back Side Infrared Hemispherical Emissivity
  299.383;                                ! Conductivity {W/m-K}

OS:ComponentCost:LineItem,
  {16d5ba5b-3af4-4fe2-93b0-3f8cbaf1a4fb}, ! Handle
  90.1-1999 Nonres B12 Skylight without Curb, ! Name
  ,                                       ! Type
  Construction,                           ! Line Item Type
  90.1-1999 Nonres B12 Skylight without Curb, ! Item Name
  ,                                       ! Object End Use Key
  ,                                       ! Quantity {dimensionless}
  459.189,                                ! Material Cost {$}
  CostPerArea;                            ! Material Cost Units

