
OS:Version,
  {56468b5d-c5b5-4b22-8db6-52af77c19a7b}, !- Handle
  1.1.0;                                  !- Version Identifier

OS:Construction,
  {f5cbcf04-cf52-4055-9b46-2ea20015eae6}, !- Handle
  Dbl LoE (e3=.1) Clr 3mm/6mm Air,        !- Name
  ,                                       !- Surface Rendering Name
  {a2a0bd7d-f7cc-4850-9145-9c7881cd6acc}, !- Layer 1
  {a875bac2-70c7-406a-89e0-07d79d9174db}, !- Layer 2
  {1df26d7f-059b-4456-acc8-b7912e2bb1b2}; !- Layer 3

OS:WindowMaterial:Glazing,
  {a2a0bd7d-f7cc-4850-9145-9c7881cd6acc}, !- Handle
  CLEAR 3MM,                              !- Name
  SpectralAverage,                        !- Optical Data Type
  ,                                       !- Window Glass Spectral Data Set Name
  0.003,                                  !- Thickness {m}
  0.837,                                  !- Solar Transmittance at Normal Incidence
  0.075,                                  !- Front Side Solar Reflectance at Normal Incidence
  0.075,                                  !- Back Side Solar Reflectance at Normal Incidence
  0.898,                                  !- Visible Transmittance at Normal Incidence
  0.081,                                  !- Front Side Visible Reflectance at Normal Incidence
  0.081,                                  !- Back Side Visible Reflectance at Normal Incidence
  0,                                      !- Infrared Transmittance at Normal Incidence
  0.84,                                   !- Front Side Infrared Hemispherical Emissivity
  0.84,                                   !- Back Side Infrared Hemispherical Emissivity
  0.9;                                    !- Conductivity {W/m-K}

OS:WindowMaterial:Gas,
  {a875bac2-70c7-406a-89e0-07d79d9174db}, !- Handle
  AIR 6MM,                                !- Name
  Air,                                    !- Gas Type
  0.0063;                                 !- Thickness {m}

OS:WindowMaterial:Glazing,
  {1df26d7f-059b-4456-acc8-b7912e2bb1b2}, !- Handle
  LoE CLEAR 3MM Rev,                      !- Name
  SpectralAverage,                        !- Optical Data Type
  ,                                       !- Window Glass Spectral Data Set Name
  0.003,                                  !- Thickness {m}
  0.63,                                   !- Solar Transmittance at Normal Incidence
  0.22,                                   !- Front Side Solar Reflectance at Normal Incidence
  0.19,                                   !- Back Side Solar Reflectance at Normal Incidence
  0.85,                                   !- Visible Transmittance at Normal Incidence
  0.079,                                  !- Front Side Visible Reflectance at Normal Incidence
  0.056,                                  !- Back Side Visible Reflectance at Normal Incidence
  0,                                      !- Infrared Transmittance at Normal Incidence
  0.1,                                    !- Front Side Infrared Hemispherical Emissivity
  0.84,                                   !- Back Side Infrared Hemispherical Emissivity
  0.9;                                    !- Conductivity {W/m-K}

OS:ComponentData,
  {d74cad7b-2e26-4ffc-b78f-f28dab4a938b}, !- Handle
  Component Data 1,                       !- Name
  {27aa01a1-df56-4aa4-b189-fffe99891576}, !- UUID
  {ef3db0f3-830b-4caa-9449-7d8cae192588}, !- Version UUID
  1384380195,                             !- Creation Timestamp
  1384380195,                             !- Version Timestamp
  {f5cbcf04-cf52-4055-9b46-2ea20015eae6}, !- Name of Object 1
  {a2a0bd7d-f7cc-4850-9145-9c7881cd6acc}, !- Name of Object 2
  {a875bac2-70c7-406a-89e0-07d79d9174db}, !- Name of Object 3
  {1df26d7f-059b-4456-acc8-b7912e2bb1b2}; !- Name of Object 4

