
OS:Version,
  {89af66f3-548c-4b97-861e-097e0975a49c}, !- Handle
  1.1.0;                                  !- Version Identifier

OS:Construction,
  {81158f95-a180-4dc5-b7b3-bfd6f3f8cfa4}, !- Handle
  Dbl LoE (e3=.1) Clr 3mm/6mm Air,        !- Name
  ,                                       !- Surface Rendering Name
  {b0447292-540e-4ba5-825d-c7bd4b58b3ea}, !- Layer 1
  {653ced52-1302-4ada-a502-3a192a01289e}, !- Layer 2
  {ab6eecfa-526b-4e16-97d6-5f5bc28d44d3}; !- Layer 3

OS:WindowMaterial:Glazing,
  {b0447292-540e-4ba5-825d-c7bd4b58b3ea}, !- Handle
  CLEAR 3MM,                              !- Name
  SpectralAverage,                        !- Optical Data Type
  ,                                       !- Window Glass Spectral Data Set Name
  0.003,                                  !- Thickness {m}
  0.837,                                  !- Solar Transmittance at Normal Incidence
  0.075,                                  !- Front Side Solar Reflectance at Normal Incidence
  0.075,                                  !- Back Side Solar Reflectance at Normal Incidence
  0.898,                                  !- Visible Transmittance at Normal Incidence
  0.081,                                  !- Front Side Visible Reflectance at Normal Incidence
  0.081,                                  !- Back Side Visible Reflectance at Normal Incidence
  0,                                      !- Infrared Transmittance at Normal Incidence
  0.84,                                   !- Front Side Infrared Hemispherical Emissivity
  0.84,                                   !- Back Side Infrared Hemispherical Emissivity
  0.9;                                    !- Conductivity {W/m-K}

OS:WindowMaterial:Gas,
  {653ced52-1302-4ada-a502-3a192a01289e}, !- Handle
  AIR 6MM,                                !- Name
  Air,                                    !- Gas Type
  0.0063;                                 !- Thickness {m}

OS:WindowMaterial:Glazing,
  {ab6eecfa-526b-4e16-97d6-5f5bc28d44d3}, !- Handle
  LoE CLEAR 3MM Rev,                      !- Name
  SpectralAverage,                        !- Optical Data Type
  ,                                       !- Window Glass Spectral Data Set Name
  0.003,                                  !- Thickness {m}
  0.63,                                   !- Solar Transmittance at Normal Incidence
  0.22,                                   !- Front Side Solar Reflectance at Normal Incidence
  0.19,                                   !- Back Side Solar Reflectance at Normal Incidence
  0.85,                                   !- Visible Transmittance at Normal Incidence
  0.079,                                  !- Front Side Visible Reflectance at Normal Incidence
  0.056,                                  !- Back Side Visible Reflectance at Normal Incidence
  0,                                      !- Infrared Transmittance at Normal Incidence
  0.1,                                    !- Front Side Infrared Hemispherical Emissivity
  0.84,                                   !- Back Side Infrared Hemispherical Emissivity
  0.9;                                    !- Conductivity {W/m-K}

