
OS:Version,
  {03a6d624-a95a-4b5f-80a5-6f986879945e}, ! Handle
  0.9.3;                                  ! Version Identifier

OS:Material,
  {e851896b-8995-428d-b95c-c0c188f465c8}, ! Handle
  Metal Decking,                          ! Name
  MediumSmooth,                           ! Roughness
  0.001524,                               ! Thickness {m}
  45.006,                                 ! Conductivity {W/m-K}
  7680,                                   ! Density {kg/m3}
  418.4,                                  ! Specific Heat {J/kg-K}
  0.9,                                    ! Thermal Absorptance
  0.7,                                    ! Solar Absorptance
  0.3;                                    ! Visible Absorptance

OS:Construction,
  {b73c4d73-7ec4-4627-acc2-ec5e0e45e160}, ! Handle
  90.1-1999 Res B12 Roof IEAD,            ! Name
  ,                                       ! Surface Rendering Name
  {44afa62c-308f-4c91-9e83-0607b3c93233}, ! Layer 1
  {bd5d12f5-0396-41d6-9ddb-d525c5d230a8}, ! Layer 2
  {e851896b-8995-428d-b95c-c0c188f465c8}; ! Layer 3

OS:Material,
  {44afa62c-308f-4c91-9e83-0607b3c93233}, ! Handle
  Roof Membrane,                          ! Name
  VeryRough,                              ! Roughness
  0.0095,                                 ! Thickness {m}
  0.16,                                   ! Conductivity {W/m-K}
  1121.29,                                ! Density {kg/m3}
  1460,                                   ! Specific Heat {J/kg-K}
  0.9,                                    ! Thermal Absorptance
  0.7,                                    ! Solar Absorptance
  0.7;                                    ! Visible Absorptance

OS:Material,
  {bd5d12f5-0396-41d6-9ddb-d525c5d230a8}, ! Handle
  Roof Insulation,                        ! Name
  MediumRough,                            ! Roughness
  0.124958,                               ! Thickness {m}
  0.049,                                  ! Conductivity {W/m-K}
  265,                                    ! Density {kg/m3}
  836.8,                                  ! Specific Heat {J/kg-K}
  0.9,                                    ! Thermal Absorptance
  0.7,                                    ! Solar Absorptance
  0.7;                                    ! Visible Absorptance

OS:ComponentCost:LineItem,
  {1e70605f-71f9-4da2-99cc-37c572310f15}, ! Handle
  90.1-1999 Res B12 Roof IEAD,            ! Name
  ,                                       ! Type
  Construction,                           ! Line Item Type
  90.1-1999 Res B12 Roof IEAD,            ! Item Name
  ,                                       ! Object End Use Key
  ,                                       ! Quantity {dimensionless}
  49.208,                                 ! Material Cost {$}
  CostPerArea;                            ! Material Cost Units

