
OS:Version,
  {522f3039-3ad9-484f-b346-0ffbe1b812a5}, ! Handle
  0.9.3;                                  ! Version Identifier

OS:Construction,
  {acf812dd-1ed3-4c06-b6ee-6c628879000f}, ! Handle
  AEDG SHC Nonres 4B Ext Wall Steel-Framed, ! Name
  ,                                       ! Surface Rendering Name
  {8eb1092b-cfbe-4d16-82ed-cac1df4aa339}, ! Layer 1
  {dead8b30-320f-4761-9929-88145e1a6b7e}, ! Layer 2
  {94096139-17c5-43c8-911a-5a2a298f4246}; ! Layer 3

OS:Material:NoMass,
  {8eb1092b-cfbe-4d16-82ed-cac1df4aa339}, ! Handle
  MAT-SHEATH,                             ! Name
  Rough,                                  ! Roughness
  0.36256,                                ! Thermal Resistance {m2-K/W}
  0.9,                                    ! Thermal Absorptance
  0.7,                                    ! Solar Absorptance
  0.7;                                    ! Visible Absorptance

OS:Material,
  {dead8b30-320f-4761-9929-88145e1a6b7e}, ! Handle
  Wall Insulation [59],                   ! Name
  MediumRough,                            ! Roughness
  0.0965812,                              ! Thickness {m}
  0.045,                                  ! Conductivity {W/m-K}
  265,                                    ! Density {kg/m3}
  836.8,                                  ! Specific Heat {J/kg-K}
  0.9,                                    ! Thermal Absorptance
  0.7,                                    ! Solar Absorptance
  0.7;                                    ! Visible Absorptance

OS:Material,
  {94096139-17c5-43c8-911a-5a2a298f4246}, ! Handle
  1/2IN Gypsum,                           ! Name
  Smooth,                                 ! Roughness
  0.01271,                                ! Thickness {m}
  0.16,                                   ! Conductivity {W/m-K}
  784.9,                                  ! Density {kg/m3}
  830,                                    ! Specific Heat {J/kg-K}
  0.9,                                    ! Thermal Absorptance
  0.92,                                   ! Solar Absorptance
  0.92;                                   ! Visible Absorptance

OS:ComponentCost:LineItem,
  {79dc12da-ff29-4c88-b690-6d3a7b944847}, ! Handle
  AEDG SHC Nonres 4B Ext Wall Steel-Framed, ! Name
  ,                                       ! Type
  Construction,                           ! Line Item Type
  AEDG SHC Nonres 4B Ext Wall Steel-Framed, ! Item Name
  ,                                       ! Object End Use Key
  ,                                       ! Quantity {dimensionless}
  0,                                      ! Material Cost {$}
  CostPerArea;                            ! Material Cost Units

OS:ComponentData,
  {0103b084-0780-450b-a097-bc911d4fd354}, ! Handle
  Component Data 1,                       ! Name
  {e013cea6-3d18-46fe-89f4-0adf4c909589}, ! UUID
  {f8cb389f-573e-4846-875b-acf04d5c57ba}, ! Version UUID
  1363981921,                             ! Creation Timestamp
  1363981921,                             ! Version Timestamp
  {acf812dd-1ed3-4c06-b6ee-6c628879000f}, ! Name of Object 1
  {8eb1092b-cfbe-4d16-82ed-cac1df4aa339}, ! Name of Object 2
  {dead8b30-320f-4761-9929-88145e1a6b7e}, ! Name of Object 3
  {94096139-17c5-43c8-911a-5a2a298f4246}, ! Name of Object 4
  {79dc12da-ff29-4c88-b690-6d3a7b944847}; ! Name of Object 5

