
OS:Version,
  {672c8a6a-a521-4236-93bf-d5ea1d127646}, ! Handle
  0.9.3;                                  ! Version Identifier

OS:ComponentCost:LineItem,
  {992b5cfb-840f-4c7f-8a41-feb5710d3897}, ! Handle
  AEDG SHC Nonres 4B Ext Wall Steel-Framed, ! Name
  ,                                       ! Type
  Construction,                           ! Line Item Type
  AEDG SHC Nonres 4B Ext Wall Steel-Framed, ! Item Name
  ,                                       ! Object End Use Key
  ,                                       ! Quantity {dimensionless}
  0,                                      ! Material Cost {$}
  CostPerArea;                            ! Material Cost Units

OS:Construction,
  {b29b37d2-0159-4e3a-bd69-61f68d3fa873}, ! Handle
  AEDG SHC Nonres 4B Ext Wall Steel-Framed, ! Name
  ,                                       ! Surface Rendering Name
  {c80f81bb-9bdc-4fb1-b0b2-471f093d91b9}, ! Layer 1
  {2c2318ba-3680-4825-869f-e87273b0c7ec}, ! Layer 2
  {ae60ddf0-0514-41e8-83fd-5d4a92eb6d1a}; ! Layer 3

OS:Material:NoMass,
  {c80f81bb-9bdc-4fb1-b0b2-471f093d91b9}, ! Handle
  MAT-SHEATH,                             ! Name
  Rough,                                  ! Roughness
  0.36256,                                ! Thermal Resistance {m2-K/W}
  0.9,                                    ! Thermal Absorptance
  0.7,                                    ! Solar Absorptance
  0.7;                                    ! Visible Absorptance

OS:Material,
  {2c2318ba-3680-4825-869f-e87273b0c7ec}, ! Handle
  Wall Insulation [59],                   ! Name
  MediumRough,                            ! Roughness
  0.0965812,                              ! Thickness {m}
  0.045,                                  ! Conductivity {W/m-K}
  265,                                    ! Density {kg/m3}
  836.8,                                  ! Specific Heat {J/kg-K}
  0.9,                                    ! Thermal Absorptance
  0.7,                                    ! Solar Absorptance
  0.7;                                    ! Visible Absorptance

OS:Material,
  {ae60ddf0-0514-41e8-83fd-5d4a92eb6d1a}, ! Handle
  1/2IN Gypsum,                           ! Name
  Smooth,                                 ! Roughness
  0.01271,                                ! Thickness {m}
  0.16,                                   ! Conductivity {W/m-K}
  784.9,                                  ! Density {kg/m3}
  830,                                    ! Specific Heat {J/kg-K}
  0.9,                                    ! Thermal Absorptance
  0.92,                                   ! Solar Absorptance
  0.92;                                   ! Visible Absorptance

