
OS:Version,
  {d265f203-0edc-484c-9788-0e7a15b6c36e}, ! Handle
  0.9.3;                                  ! Version Identifier

OS:Material,
  {06183727-9edb-476f-ba4a-3ac619025a12}, ! Handle
  GP01 1/2 GYPSUM 1,                      ! Name
  Smooth,                                 ! Roughness
  0.01271,                                ! Thickness {m}
  0.16,                                   ! Conductivity {W/m-K}
  800,                                    ! Density {kg/m3}
  1090,                                   ! Specific Heat {J/kg-K}
  0.9,                                    ! Thermal Absorptance
  0.7,                                    ! Solar Absorptance
  0.5;                                    ! Visible Absorptance

OS:Material,
  {88be0f9d-ca3c-4b2b-b1e9-4fcbd042d368}, ! Handle
  GP01 1/2 GYPSUM,                        ! Name
  Smooth,                                 ! Roughness
  0.01271,                                ! Thickness {m}
  0.16,                                   ! Conductivity {W/m-K}
  800,                                    ! Density {kg/m3}
  1090,                                   ! Specific Heat {J/kg-K}
  0.9,                                    ! Thermal Absorptance
  0.7,                                    ! Solar Absorptance
  0.5;                                    ! Visible Absorptance

OS:Construction,
  {a25a2904-df43-4eea-a344-089a27fd25fd}, ! Handle
  90.1-2004 Res 6B Int Wall,              ! Name
  ,                                       ! Surface Rendering Name
  {88be0f9d-ca3c-4b2b-b1e9-4fcbd042d368}, ! Layer 1
  {88be0f9d-ca3c-4b2b-b1e9-4fcbd042d368}; ! Layer 2

OS:ComponentCost:LineItem,
  {aa3a86cd-1774-4506-a7ea-8ab8d2ad5267}, ! Handle
  90.1-2004 Res 6B Int Wall,              ! Name
  ,                                       ! Type
  Construction,                           ! Line Item Type
  90.1-2004 Res 6B Int Wall,              ! Item Name
  ,                                       ! Object End Use Key
  ,                                       ! Quantity {dimensionless}
  0,                                      ! Material Cost {$}
  CostPerArea;                            ! Material Cost Units

