
OS:Version,
  {7ca1311b-8302-46d4-a1b6-0dbdc15393bc}, ! Handle
  0.9.3;                                  ! Version Identifier

OS:Construction,
  {13b1af0f-9ce1-46f6-b7b6-e79e71609a1a}, ! Handle
  90.1-2004 Res 6B Int Wall,              ! Name
  ,                                       ! Surface Rendering Name
  {208bcbfc-7d76-4acf-9f74-cc2bf078a722}, ! Layer 1
  {208bcbfc-7d76-4acf-9f74-cc2bf078a722}; ! Layer 2

OS:Material,
  {208bcbfc-7d76-4acf-9f74-cc2bf078a722}, ! Handle
  GP01 1/2 GYPSUM,                        ! Name
  Smooth,                                 ! Roughness
  0.01271,                                ! Thickness {m}
  0.16,                                   ! Conductivity {W/m-K}
  800,                                    ! Density {kg/m3}
  1090,                                   ! Specific Heat {J/kg-K}
  0.9,                                    ! Thermal Absorptance
  0.7,                                    ! Solar Absorptance
  0.5;                                    ! Visible Absorptance

OS:ComponentCost:LineItem,
  {59752359-7986-4147-8afa-0a46bafb8e4e}, ! Handle
  90.1-2004 Res 6B Int Wall,              ! Name
  ,                                       ! Type
  Construction,                           ! Line Item Type
  90.1-2004 Res 6B Int Wall,              ! Item Name
  ,                                       ! Object End Use Key
  ,                                       ! Quantity {dimensionless}
  0,                                      ! Material Cost {$}
  CostPerArea;                            ! Material Cost Units

OS:ComponentData,
  {0d7cefa8-6dd9-41e3-abfb-b38ab95a1226}, ! Handle
  Component Data 1,                       ! Name
  {d7173e4d-6427-4bc7-81ca-1be08a810b5e}, ! UUID
  {b21fbf4f-ee3e-442b-86ff-648c1b9ffec3}, ! Version UUID
  1363981751,                             ! Creation Timestamp
  1363981751,                             ! Version Timestamp
  {13b1af0f-9ce1-46f6-b7b6-e79e71609a1a}, ! Name of Object 1
  {208bcbfc-7d76-4acf-9f74-cc2bf078a722}, ! Name of Object 2
  {59752359-7986-4147-8afa-0a46bafb8e4e}; ! Name of Object 3

