
OS:Version,
  {1b5325cd-4a5a-494b-a52a-544aa659564e}, ! Handle
  0.9.3;                                  ! Version Identifier

OS:Material,
  {dd2b3436-ce03-421a-bf7a-aa692a5009d1}, ! Handle
  Metal Decking,                          ! Name
  MediumSmooth,                           ! Roughness
  0.001524,                               ! Thickness {m}
  45.006,                                 ! Conductivity {W/m-K}
  7680,                                   ! Density {kg/m3}
  418.4,                                  ! Specific Heat {J/kg-K}
  0.9,                                    ! Thermal Absorptance
  0.7,                                    ! Solar Absorptance
  0.3;                                    ! Visible Absorptance

OS:Material,
  {cb4999ad-0798-46ea-a5b8-9661aa045877}, ! Handle
  Roof Insulation,                        ! Name
  MediumRough,                            ! Roughness
  0.124958,                               ! Thickness {m}
  0.049,                                  ! Conductivity {W/m-K}
  265,                                    ! Density {kg/m3}
  836.8,                                  ! Specific Heat {J/kg-K}
  0.9,                                    ! Thermal Absorptance
  0.7,                                    ! Solar Absorptance
  0.7;                                    ! Visible Absorptance

OS:Construction,
  {45bf6c98-919d-4b89-9aba-f36cc96f9dbb}, ! Handle
  90.1-1999 Nonres B14 Roof IEAD,         ! Name
  ,                                       ! Surface Rendering Name
  {6c8fcfa6-fb90-45db-b056-e4527db62b1c}, ! Layer 1
  {cb4999ad-0798-46ea-a5b8-9661aa045877}, ! Layer 2
  {dd2b3436-ce03-421a-bf7a-aa692a5009d1}; ! Layer 3

OS:Material,
  {6c8fcfa6-fb90-45db-b056-e4527db62b1c}, ! Handle
  Roof Membrane,                          ! Name
  VeryRough,                              ! Roughness
  0.0095,                                 ! Thickness {m}
  0.16,                                   ! Conductivity {W/m-K}
  1121.29,                                ! Density {kg/m3}
  1460,                                   ! Specific Heat {J/kg-K}
  0.9,                                    ! Thermal Absorptance
  0.7,                                    ! Solar Absorptance
  0.7;                                    ! Visible Absorptance

OS:ComponentCost:LineItem,
  {6415ca62-5a3f-47c6-b114-ba0a70612bcf}, ! Handle
  90.1-1999 Nonres B14 Roof IEAD,         ! Name
  ,                                       ! Type
  Construction,                           ! Line Item Type
  90.1-1999 Nonres B14 Roof IEAD,         ! Item Name
  ,                                       ! Object End Use Key
  ,                                       ! Quantity {dimensionless}
  49.208,                                 ! Material Cost {$}
  CostPerArea;                            ! Material Cost Units

