
OS:Version,
  {1bddb7e9-fe9f-433f-bffd-c4c0390c9b52}, ! Handle
  0.9.3;                                  ! Version Identifier

OS:ComponentCost:LineItem,
  {10bfab69-730f-4bc6-b911-891692cc791b}, ! Handle
  Title 24-2008 Nonres 9 Roof Metal Building, ! Name
  ,                                       ! Type
  Construction,                           ! Line Item Type
  Title 24-2008 Nonres 9 Roof Metal Building, ! Item Name
  ,                                       ! Object End Use Key
  ,                                       ! Quantity {dimensionless}
  38.21,                                  ! Material Cost {$}
  CostPerArea;                            ! Material Cost Units

OS:Material,
  {c6ee3297-f750-438d-8e69-d84d99464d8b}, ! Handle
  Metal Roofing [1],                      ! Name
  MediumSmooth,                           ! Roughness
  0.001524,                               ! Thickness {m}
  45.006,                                 ! Conductivity {W/m-K}
  7680,                                   ! Density {kg/m3}
  418.4,                                  ! Specific Heat {J/kg-K}
  0.9,                                    ! Thermal Absorptance
  0.7,                                    ! Solar Absorptance
  0.85;                                   ! Visible Absorptance

OS:Material,
  {46140816-ed67-4e26-9bc4-14f77699d4a2}, ! Handle
  Roof Insulation [15],                   ! Name
  MediumRough,                            ! Roughness
  0.123565,                               ! Thickness {m}
  0.049,                                  ! Conductivity {W/m-K}
  265,                                    ! Density {kg/m3}
  836.8,                                  ! Specific Heat {J/kg-K}
  0.9,                                    ! Thermal Absorptance
  0.7,                                    ! Solar Absorptance
  0.7;                                    ! Visible Absorptance

OS:Construction,
  {e23211c8-2b79-4d42-a50d-867e73dbc960}, ! Handle
  Title 24-2008 Nonres 9 Roof Metal Building, ! Name
  ,                                       ! Surface Rendering Name
  {c6ee3297-f750-438d-8e69-d84d99464d8b}, ! Layer 1
  {46140816-ed67-4e26-9bc4-14f77699d4a2}; ! Layer 2

