
OS:Version,
  {44390d98-6c2a-4b3d-a3b1-4c3cf7e1422b}, ! Handle
  0.9.3;                                  ! Version Identifier

OS:Material,
  {e28b5a96-e40a-48d6-9ddb-ada155cf8d8f}, ! Handle
  MAT-CC05 8 HW CONCRETE,                 ! Name
  Rough,                                  ! Roughness
  0.20321,                                ! Thickness {m}
  1.311,                                  ! Conductivity {W/m-K}
  2240,                                   ! Density {kg/m3}
  836.8,                                  ! Specific Heat {J/kg-K}
  0.9,                                    ! Thermal Absorptance
  0.7,                                    ! Solar Absorptance
  0.7;                                    ! Visible Absorptance

OS:Material:NoMass,
  {16d6b7d8-5c0a-491e-8f33-051c9754823c}, ! Handle
  CP02 CARPET PAD,                        ! Name
  VeryRough,                              ! Roughness
  0.21648,                                ! Thermal Resistance {m2-K/W}
  0.9,                                    ! Thermal Absorptance
  0.7,                                    ! Solar Absorptance
  0.8;                                    ! Visible Absorptance

OS:Construction,
  {dfaef14d-7a57-48ca-b0c1-388cfa3b4ea2}, ! Handle
  90.1-2004 Nonres 4B Ext Slab Unheated - 8in Slab with Carpet, ! Name
  ,                                       ! Surface Rendering Name
  {e28b5a96-e40a-48d6-9ddb-ada155cf8d8f}, ! Layer 1
  {16d6b7d8-5c0a-491e-8f33-051c9754823c}; ! Layer 2

OS:ComponentCost:LineItem,
  {8ebc5ab0-2f63-4751-8a01-8d220b1114de}, ! Handle
  90.1-2004 Nonres 4B Ext Slab Unheated - 8in Slab with Carpet, ! Name
  ,                                       ! Type
  Construction,                           ! Line Item Type
  90.1-2004 Nonres 4B Ext Slab Unheated - 8in Slab with Carpet, ! Item Name
  ,                                       ! Object End Use Key
  ,                                       ! Quantity {dimensionless}
  45.52,                                  ! Material Cost {$}
  CostPerArea;                            ! Material Cost Units

