
OS:Version,
  {001c28fe-4a2b-4871-8e53-78759b8754e5}, ! Handle
  0.9.3;                                  ! Version Identifier

OS:Material,
  {9f4133b8-502e-438e-9c6f-b0d92fdf7416}, ! Handle
  METAL Door Medium 18Ga,                 ! Name
  Smooth,                                 ! Roughness
  0.0013106,                              ! Thickness {m}
  45.3149,                                ! Conductivity {W/m-K}
  7833.03,                                ! Density {kg/m3}
  502.08,                                 ! Specific Heat {J/kg-K}
  0.8,                                    ! Thermal Absorptance
  0.5,                                    ! Solar Absorptance
  0.5;                                    ! Visible Absorptance

OS:Construction,
  {9a0a6b35-27bc-4e39-a049-c22e6aecb338}, ! Handle
  Title 24-2008 Nonres 7 Door Non-Swinging, ! Name
  ,                                       ! Surface Rendering Name
  {9f4133b8-502e-438e-9c6f-b0d92fdf7416}, ! Layer 1
  {70d3b8fb-c1ca-4d95-b2f4-9e00bcf16aa7}, ! Layer 2
  {6495bc2b-0ef5-412b-a914-25499414f2ec}; ! Layer 3

OS:Material:NoMass,
  {70d3b8fb-c1ca-4d95-b2f4-9e00bcf16aa7}, ! Handle
  AIR [16],                               ! Name
  Smooth,                                 ! Roughness
  0.121454,                               ! Thermal Resistance {m2-K/W}
  0.8,                                    ! Thermal Absorptance
  0.5,                                    ! Solar Absorptance
  0.5;                                    ! Visible Absorptance

OS:Material,
  {6495bc2b-0ef5-412b-a914-25499414f2ec}, ! Handle
  METAL Door Medium 18Ga_2,               ! Name
  Smooth,                                 ! Roughness
  0.0013106,                              ! Thickness {m}
  45.3149,                                ! Conductivity {W/m-K}
  7833.03,                                ! Density {kg/m3}
  502.08,                                 ! Specific Heat {J/kg-K}
  0.8,                                    ! Thermal Absorptance
  0.5,                                    ! Solar Absorptance
  0.5;                                    ! Visible Absorptance

OS:ComponentCost:LineItem,
  {8321f4aa-fa07-479c-aa1a-fb097e445355}, ! Handle
  Title 24-2008 Nonres 7 Door Non-Swinging, ! Name
  ,                                       ! Type
  Construction,                           ! Line Item Type
  Title 24-2008 Nonres 7 Door Non-Swinging, ! Item Name
  ,                                       ! Object End Use Key
  ,                                       ! Quantity {dimensionless}
  0,                                      ! Material Cost {$}
  CostPerArea;                            ! Material Cost Units

