
OS:Version,
  {04f5afc4-e353-40f2-9fe7-bed4007c2568}, ! Handle
  0.9.3;                                  ! Version Identifier

OS:ComponentCost:LineItem,
  {e051688d-1cc7-47ad-9264-cd572156f3fd}, ! Handle
  90.1-1999 Nonres B21 Window Fixed,      ! Name
  ,                                       ! Type
  Construction,                           ! Line Item Type
  90.1-1999 Nonres B21 Window Fixed,      ! Item Name
  ,                                       ! Object End Use Key
  ,                                       ! Quantity {dimensionless}
  619.19,                                 ! Material Cost {$}
  CostPerArea;                            ! Material Cost Units

OS:Construction,
  {227720be-7a89-48d3-91d4-56a69b7777f2}, ! Handle
  90.1-1999 Nonres B21 Window Fixed,      ! Name
  ,                                       ! Surface Rendering Name
  {7c6a845f-743b-443f-8eae-df30705712c2}; ! Layer 1

OS:WindowMaterial:Glazing,
  {7c6a845f-743b-443f-8eae-df30705712c2}, ! Handle
  Theoretical Glass [44],                 ! Name
  SpectralAverage,                        ! Optical Data Type
  ,                                       ! Window Glass Spectral Data Set Name
  0.003,                                  ! Thickness {m}
  0.455617,                               ! Solar Transmittance at Normal Incidence
  0.494383,                               ! Front Side Solar Reflectance at Normal Incidence
  0.494383,                               ! Back Side Solar Reflectance at Normal Incidence
  0.493419,                               ! Visible Transmittance at Normal Incidence
  0.456581,                               ! Front Side Visible Reflectance at Normal Incidence
  0.456581,                               ! Back Side Visible Reflectance at Normal Incidence
  0,                                      ! Infrared Transmittance at Normal Incidence
  0.9,                                    ! Front Side Infrared Hemispherical Emissivity
  0.9,                                    ! Back Side Infrared Hemispherical Emissivity
  0.00882224;                             ! Conductivity {W/m-K}

