
OS:Version,
  {e141a650-1c66-41d3-b4c9-90f4f3bd3919}, ! Handle
  0.9.3;                                  ! Version Identifier

OS:Construction,
  {d4ecffda-4200-4deb-9d80-12b9ca96c136}, ! Handle
  90.1-2007 Res 7A Ext Wall Metal Building, ! Name
  ,                                       ! Surface Rendering Name
  {39dd5eee-0ecf-4e79-b0a9-d162c138be40}, ! Layer 1
  {0e1b81db-8de9-48a6-a6a7-78a25c47870e}, ! Layer 2
  {64bc9fa7-7e74-430c-b73b-540fa7143cb1}; ! Layer 3

OS:Material,
  {39dd5eee-0ecf-4e79-b0a9-d162c138be40}, ! Handle
  Metal Siding,                           ! Name
  Smooth,                                 ! Roughness
  0.0015,                                 ! Thickness {m}
  44.96,                                  ! Conductivity {W/m-K}
  7688.86,                                ! Density {kg/m3}
  410,                                    ! Specific Heat {J/kg-K}
  0.9,                                    ! Thermal Absorptance
  0.2,                                    ! Solar Absorptance
  0.2;                                    ! Visible Absorptance

OS:Material,
  {0e1b81db-8de9-48a6-a6a7-78a25c47870e}, ! Handle
  Wall Insulation [25],                   ! Name
  MediumRough,                            ! Roughness
  0.128503,                               ! Thickness {m}
  0.045,                                  ! Conductivity {W/m-K}
  265,                                    ! Density {kg/m3}
  836.8,                                  ! Specific Heat {J/kg-K}
  0.9,                                    ! Thermal Absorptance
  0.7,                                    ! Solar Absorptance
  0.7;                                    ! Visible Absorptance

OS:Material,
  {64bc9fa7-7e74-430c-b73b-540fa7143cb1}, ! Handle
  1/2IN Gypsum,                           ! Name
  Smooth,                                 ! Roughness
  0.01271,                                ! Thickness {m}
  0.16,                                   ! Conductivity {W/m-K}
  784.9,                                  ! Density {kg/m3}
  830,                                    ! Specific Heat {J/kg-K}
  0.9,                                    ! Thermal Absorptance
  0.92,                                   ! Solar Absorptance
  0.92;                                   ! Visible Absorptance

OS:ComponentCost:LineItem,
  {58d29eea-fed0-462e-9b62-81ff894b364f}, ! Handle
  90.1-2007 Res 7A Ext Wall Metal Building, ! Name
  ,                                       ! Type
  Construction,                           ! Line Item Type
  90.1-2007 Res 7A Ext Wall Metal Building, ! Item Name
  ,                                       ! Object End Use Key
  ,                                       ! Quantity {dimensionless}
  107.681,                                ! Material Cost {$}
  CostPerArea;                            ! Material Cost Units

OS:ComponentData,
  {b4f8e7de-f30b-4874-b5f5-92b38ee9f553}, ! Handle
  Component Data 1,                       ! Name
  {e8d6fd89-57d0-4680-9e8b-da0f14eb96cc}, ! UUID
  {a6f9582b-076a-401b-a856-1aaa8e29db7c}, ! Version UUID
  1363981870,                             ! Creation Timestamp
  1363981870,                             ! Version Timestamp
  {d4ecffda-4200-4deb-9d80-12b9ca96c136}, ! Name of Object 1
  {39dd5eee-0ecf-4e79-b0a9-d162c138be40}, ! Name of Object 2
  {0e1b81db-8de9-48a6-a6a7-78a25c47870e}, ! Name of Object 3
  {64bc9fa7-7e74-430c-b73b-540fa7143cb1}, ! Name of Object 4
  {58d29eea-fed0-462e-9b62-81ff894b364f}; ! Name of Object 5

