
OS:Version,
  {a46d0625-4791-445d-9642-1fe77c998d3f}, ! Handle
  0.9.3;                                  ! Version Identifier

OS:Material,
  {f7586685-1fbe-4ada-b6bc-9102235a509a}, ! Handle
  1/2IN Gypsum,                           ! Name
  Smooth,                                 ! Roughness
  0.01271,                                ! Thickness {m}
  0.16,                                   ! Conductivity {W/m-K}
  784.9,                                  ! Density {kg/m3}
  830,                                    ! Specific Heat {J/kg-K}
  0.9,                                    ! Thermal Absorptance
  0.92,                                   ! Solar Absorptance
  0.92;                                   ! Visible Absorptance

OS:ComponentCost:LineItem,
  {81238b01-8554-4bb2-895d-100690b4f796}, ! Handle
  90.1-2007 Res 7A Ext Wall Metal Building, ! Name
  ,                                       ! Type
  Construction,                           ! Line Item Type
  90.1-2007 Res 7A Ext Wall Metal Building, ! Item Name
  ,                                       ! Object End Use Key
  ,                                       ! Quantity {dimensionless}
  107.681,                                ! Material Cost {$}
  CostPerArea;                            ! Material Cost Units

OS:Material,
  {bf062d89-63bd-429d-8eb4-74b0b7384756}, ! Handle
  Wall Insulation [25],                   ! Name
  MediumRough,                            ! Roughness
  0.128503,                               ! Thickness {m}
  0.045,                                  ! Conductivity {W/m-K}
  265,                                    ! Density {kg/m3}
  836.8,                                  ! Specific Heat {J/kg-K}
  0.9,                                    ! Thermal Absorptance
  0.7,                                    ! Solar Absorptance
  0.7;                                    ! Visible Absorptance

OS:Construction,
  {c25ee6ff-eaca-4d3d-a514-7458b25bcc10}, ! Handle
  90.1-2007 Res 7A Ext Wall Metal Building, ! Name
  ,                                       ! Surface Rendering Name
  {3c757219-c3b3-47cf-9d42-b9612d49a1a5}, ! Layer 1
  {bf062d89-63bd-429d-8eb4-74b0b7384756}, ! Layer 2
  {f7586685-1fbe-4ada-b6bc-9102235a509a}; ! Layer 3

OS:Material,
  {3c757219-c3b3-47cf-9d42-b9612d49a1a5}, ! Handle
  Metal Siding,                           ! Name
  Smooth,                                 ! Roughness
  0.0015,                                 ! Thickness {m}
  44.96,                                  ! Conductivity {W/m-K}
  7688.86,                                ! Density {kg/m3}
  410,                                    ! Specific Heat {J/kg-K}
  0.9,                                    ! Thermal Absorptance
  0.2,                                    ! Solar Absorptance
  0.2;                                    ! Visible Absorptance

