
OS:Version,
  {b2c44ded-d94c-4168-a7ed-f58c13f2445b}, ! Handle
  0.9.3;                                  ! Version Identifier

OS:Construction,
  {d3f6b8ba-6cee-4c91-b3f6-a1e508c7f32e}, ! Handle
  90.1-1999 Nonres B19 Roof Attic and Other, ! Name
  ,                                       ! Surface Rendering Name
  {52d2ed96-a033-4326-b0a2-c7c3a24d2ed6}, ! Layer 1
  {38ee499f-eba5-4a05-8686-b386889b0be1}, ! Layer 2
  {b6a92ec1-47b8-4f57-8454-f6997327a9da}, ! Layer 3
  {547d4e5e-82c0-4aa0-aeb0-dedd10105da7}; ! Layer 4

OS:Material,
  {52d2ed96-a033-4326-b0a2-c7c3a24d2ed6}, ! Handle
  Wood Shingles,                          ! Name
  VeryRough,                              ! Roughness
  0.0178,                                 ! Thickness {m}
  0.115,                                  ! Conductivity {W/m-K}
  513,                                    ! Density {kg/m3}
  1255,                                   ! Specific Heat {J/kg-K}
  0.9,                                    ! Thermal Absorptance
  0.78,                                   ! Solar Absorptance
  0.78;                                   ! Visible Absorptance

OS:Material,
  {38ee499f-eba5-4a05-8686-b386889b0be1}, ! Handle
  1IN Wood Decking,                       ! Name
  MediumSmooth,                           ! Roughness
  0.0254,                                 ! Thickness {m}
  0.1211,                                 ! Conductivity {W/m-K}
  593,                                    ! Density {kg/m3}
  2510,                                   ! Specific Heat {J/kg-K}
  0.9,                                    ! Thermal Absorptance
  0.78,                                   ! Solar Absorptance
  0.78;                                   ! Visible Absorptance

OS:Material,
  {b6a92ec1-47b8-4f57-8454-f6997327a9da}, ! Handle
  Roof Insulation [5],                    ! Name
  MediumRough,                            ! Roughness
  0.286906,                               ! Thickness {m}
  0.049,                                  ! Conductivity {W/m-K}
  265,                                    ! Density {kg/m3}
  836.8,                                  ! Specific Heat {J/kg-K}
  0.9,                                    ! Thermal Absorptance
  0.7,                                    ! Solar Absorptance
  0.7;                                    ! Visible Absorptance

OS:Material,
  {547d4e5e-82c0-4aa0-aeb0-dedd10105da7}, ! Handle
  1/2IN Gypsum,                           ! Name
  Smooth,                                 ! Roughness
  0.01271,                                ! Thickness {m}
  0.16,                                   ! Conductivity {W/m-K}
  784.9,                                  ! Density {kg/m3}
  830,                                    ! Specific Heat {J/kg-K}
  0.9,                                    ! Thermal Absorptance
  0.92,                                   ! Solar Absorptance
  0.92;                                   ! Visible Absorptance

OS:ComponentCost:LineItem,
  {d7fc8e38-b3a2-49f9-a254-0cefb692f717}, ! Handle
  90.1-1999 Nonres B19 Roof Attic and Other, ! Name
  ,                                       ! Type
  Construction,                           ! Line Item Type
  90.1-1999 Nonres B19 Roof Attic and Other, ! Item Name
  ,                                       ! Object End Use Key
  ,                                       ! Quantity {dimensionless}
  34.757,                                 ! Material Cost {$}
  CostPerArea;                            ! Material Cost Units

