
OS:Version,
  {2598c211-c41e-4c35-9a24-1a36a0f6d54a}, ! Handle
  0.9.3;                                  ! Version Identifier

OS:Construction,
  {1c691d38-3cfc-49d0-99b4-aba345287f03}, ! Handle
  90.1-2007 Res 7A Window Metal framing all other, ! Name
  ,                                       ! Surface Rendering Name
  {8fa4c497-3340-44a3-a1a3-b4a60ad85d58}; ! Layer 1

OS:WindowMaterial:Glazing,
  {8fa4c497-3340-44a3-a1a3-b4a60ad85d58}, ! Handle
  Theoretical Glass [191],                ! Name
  SpectralAverage,                        ! Optical Data Type
  ,                                       ! Window Glass Spectral Data Set Name
  0.003,                                  ! Thickness {m}
  0.444683,                               ! Solar Transmittance at Normal Incidence
  0.505317,                               ! Front Side Solar Reflectance at Normal Incidence
  0.505317,                               ! Back Side Solar Reflectance at Normal Incidence
  0.450308,                               ! Visible Transmittance at Normal Incidence
  0.499692,                               ! Front Side Visible Reflectance at Normal Incidence
  0.499692,                               ! Back Side Visible Reflectance at Normal Incidence
  0,                                      ! Infrared Transmittance at Normal Incidence
  0.9,                                    ! Front Side Infrared Hemispherical Emissivity
  0.9,                                    ! Back Side Infrared Hemispherical Emissivity
  0.0129892;                              ! Conductivity {W/m-K}

OS:ComponentCost:LineItem,
  {d56f17ff-7806-4e93-a127-1771eb73a832}, ! Handle
  90.1-2007 Res 7A Window Metal framing all other, ! Name
  ,                                       ! Type
  Construction,                           ! Line Item Type
  90.1-2007 Res 7A Window Metal framing all other, ! Item Name
  ,                                       ! Object End Use Key
  ,                                       ! Quantity {dimensionless}
  508.362,                                ! Material Cost {$}
  CostPerArea;                            ! Material Cost Units

