
OS:Version,
  {56119c7d-7111-4c8b-b0ce-c00399e970b6}, ! Handle
  0.9.3;                                  ! Version Identifier

OS:Construction,
  {5142f059-a0cd-4b20-ab29-0bc6ceb3c34b}, ! Handle
  90.1-2007 Res 7A Window Metal framing all other, ! Name
  ,                                       ! Surface Rendering Name
  {e0b60d2d-bc3d-40ed-bf17-98a842a4b2ec}; ! Layer 1

OS:WindowMaterial:Glazing,
  {e0b60d2d-bc3d-40ed-bf17-98a842a4b2ec}, ! Handle
  Theoretical Glass [191],                ! Name
  SpectralAverage,                        ! Optical Data Type
  ,                                       ! Window Glass Spectral Data Set Name
  0.003,                                  ! Thickness {m}
  0.444683,                               ! Solar Transmittance at Normal Incidence
  0.505317,                               ! Front Side Solar Reflectance at Normal Incidence
  0.505317,                               ! Back Side Solar Reflectance at Normal Incidence
  0.450308,                               ! Visible Transmittance at Normal Incidence
  0.499692,                               ! Front Side Visible Reflectance at Normal Incidence
  0.499692,                               ! Back Side Visible Reflectance at Normal Incidence
  0,                                      ! Infrared Transmittance at Normal Incidence
  0.9,                                    ! Front Side Infrared Hemispherical Emissivity
  0.9,                                    ! Back Side Infrared Hemispherical Emissivity
  0.0129892;                              ! Conductivity {W/m-K}

OS:ComponentCost:LineItem,
  {11dde875-d73c-4ab3-8d8f-708b1bc8299e}, ! Handle
  90.1-2007 Res 7A Window Metal framing all other, ! Name
  ,                                       ! Type
  Construction,                           ! Line Item Type
  90.1-2007 Res 7A Window Metal framing all other, ! Item Name
  ,                                       ! Object End Use Key
  ,                                       ! Quantity {dimensionless}
  508.362,                                ! Material Cost {$}
  CostPerArea;                            ! Material Cost Units

OS:ComponentData,
  {0adddf87-0f18-41b4-b884-65cfdd4ebc21}, ! Handle
  Component Data 1,                       ! Name
  {2d9eff97-6730-4dea-8769-b17bce2cfe3e}, ! UUID
  {e69ad9b6-9d39-4cb6-a632-e6244706831a}, ! Version UUID
  1363981874,                             ! Creation Timestamp
  1363981874,                             ! Version Timestamp
  {5142f059-a0cd-4b20-ab29-0bc6ceb3c34b}, ! Name of Object 1
  {e0b60d2d-bc3d-40ed-bf17-98a842a4b2ec}, ! Name of Object 2
  {11dde875-d73c-4ab3-8d8f-708b1bc8299e}; ! Name of Object 3

