
OS:Version,
  {eaa12b2a-86d0-4fc9-a219-a7326ca5ea3a}, ! Handle
  0.9.3;                                  ! Version Identifier

OS:ComponentCost:LineItem,
  {143a612c-b588-41ca-83ea-842dac9064b4}, ! Handle
  90.1 Windows Window Fixed 2642 Vnl-Grn-Ins-ClrSue, ! Name
  ,                                       ! Type
  Construction,                           ! Line Item Type
  90.1 Windows Window Fixed 2642 Vnl-Grn-Ins-ClrSue, ! Item Name
  ,                                       ! Object End Use Key
  ,                                       ! Quantity {dimensionless}
  0,                                      ! Material Cost {$}
  CostPerArea;                            ! Material Cost Units

OS:Construction,
  {bcd51c2a-1065-46dd-9236-0a71200e8efd}, ! Handle
  90.1 Windows Window Fixed 2642 Vnl-Grn-Ins-ClrSue, ! Name
  ,                                       ! Surface Rendering Name
  {3b3455f4-832b-49bc-87d8-7ed8882225cb}; ! Layer 1

OS:WindowMaterial:Glazing,
  {3b3455f4-832b-49bc-87d8-7ed8882225cb}, ! Handle
  Theoretical Glass [438],                ! Name
  SpectralAverage,                        ! Optical Data Type
  ,                                       ! Window Glass Spectral Data Set Name
  0.003,                                  ! Thickness {m}
  0.31679,                                ! Solar Transmittance at Normal Incidence
  0.63321,                                ! Front Side Solar Reflectance at Normal Incidence
  0.63321,                                ! Back Side Solar Reflectance at Normal Incidence
  0.500108,                               ! Visible Transmittance at Normal Incidence
  0.449892,                               ! Front Side Visible Reflectance at Normal Incidence
  0.449892,                               ! Back Side Visible Reflectance at Normal Incidence
  0,                                      ! Infrared Transmittance at Normal Incidence
  0.9,                                    ! Front Side Infrared Hemispherical Emissivity
  0.9,                                    ! Back Side Infrared Hemispherical Emissivity
  0.00776668;                             ! Conductivity {W/m-K}

