
OS:Version,
  {45e00029-a9ad-43f3-a9d5-0cc8b119ab77}, ! Handle
  0.9.3;                                  ! Version Identifier

OS:Construction,
  {34045121-bdab-4b24-b1e4-5c8db115890b}, ! Handle
  90.1-1999 Nonres B13 Ext Slab Unheated - 8in Slab with Carpet, ! Name
  ,                                       ! Surface Rendering Name
  {c70e2386-963f-483d-bb1b-02e3ca0f58c4}, ! Layer 1
  {f0c76001-f7de-45e2-a2c3-02a4a7c6e16a}; ! Layer 2

OS:Material,
  {c70e2386-963f-483d-bb1b-02e3ca0f58c4}, ! Handle
  MAT-CC05 8 HW CONCRETE,                 ! Name
  Rough,                                  ! Roughness
  0.20321,                                ! Thickness {m}
  1.311,                                  ! Conductivity {W/m-K}
  2240,                                   ! Density {kg/m3}
  836.8,                                  ! Specific Heat {J/kg-K}
  0.9,                                    ! Thermal Absorptance
  0.7,                                    ! Solar Absorptance
  0.7;                                    ! Visible Absorptance

OS:Material:NoMass,
  {f0c76001-f7de-45e2-a2c3-02a4a7c6e16a}, ! Handle
  CP02 CARPET PAD,                        ! Name
  VeryRough,                              ! Roughness
  0.21648,                                ! Thermal Resistance {m2-K/W}
  0.9,                                    ! Thermal Absorptance
  0.7,                                    ! Solar Absorptance
  0.8;                                    ! Visible Absorptance

OS:ComponentCost:LineItem,
  {49a57a5d-7323-409f-87f8-c1a67f4e07ba}, ! Handle
  90.1-1999 Nonres B13 Ext Slab Unheated - 8in Slab with Carpet, ! Name
  ,                                       ! Type
  Construction,                           ! Line Item Type
  90.1-1999 Nonres B13 Ext Slab Unheated - 8in Slab with Carpet, ! Item Name
  ,                                       ! Object End Use Key
  ,                                       ! Quantity {dimensionless}
  45.52,                                  ! Material Cost {$}
  CostPerArea;                            ! Material Cost Units

OS:ComponentData,
  {aed0c116-084c-46bf-9dc7-f097eefa2521}, ! Handle
  Component Data 1,                       ! Name
  {af8d51ba-1253-485b-92f9-b4b2b0289392}, ! UUID
  {a1759cb0-1716-475b-86dc-0e732e1e60f2}, ! Version UUID
  1363981096,                             ! Creation Timestamp
  1363981096,                             ! Version Timestamp
  {34045121-bdab-4b24-b1e4-5c8db115890b}, ! Name of Object 1
  {c70e2386-963f-483d-bb1b-02e3ca0f58c4}, ! Name of Object 2
  {f0c76001-f7de-45e2-a2c3-02a4a7c6e16a}, ! Name of Object 3
  {49a57a5d-7323-409f-87f8-c1a67f4e07ba}; ! Name of Object 4

