
OS:Version,
  {676eec65-6738-4db5-9425-0ce903f2a45a}, ! Handle
  0.9.3;                                  ! Version Identifier

OS:Construction,
  {afb8f4fa-1954-4279-a487-d0862598f81e}, ! Handle
  90.1-1999 Res B26 Ext Wall Wood-Framed and Other, ! Name
  ,                                       ! Surface Rendering Name
  {79f204ec-776a-44e4-8fc5-26f8163c016d}, ! Layer 1
  {4edba7f2-8c07-4fdd-ab6a-6c87a4a1611a}, ! Layer 2
  {d0c5b9bc-7fa0-4f77-927f-ced141f1c82b}; ! Layer 3

OS:Material,
  {79f204ec-776a-44e4-8fc5-26f8163c016d}, ! Handle
  Wood Siding,                            ! Name
  MediumSmooth,                           ! Roughness
  0.01,                                   ! Thickness {m}
  0.11,                                   ! Conductivity {W/m-K}
  544.62,                                 ! Density {kg/m3}
  1210,                                   ! Specific Heat {J/kg-K}
  0.9,                                    ! Thermal Absorptance
  0.78,                                   ! Solar Absorptance
  0.78;                                   ! Visible Absorptance

OS:Material,
  {4edba7f2-8c07-4fdd-ab6a-6c87a4a1611a}, ! Handle
  Wall Insulation [19],                   ! Name
  MediumRough,                            ! Roughness
  0.161389,                               ! Thickness {m}
  0.045,                                  ! Conductivity {W/m-K}
  265,                                    ! Density {kg/m3}
  836.8,                                  ! Specific Heat {J/kg-K}
  0.9,                                    ! Thermal Absorptance
  0.7,                                    ! Solar Absorptance
  0.7;                                    ! Visible Absorptance

OS:Material,
  {d0c5b9bc-7fa0-4f77-927f-ced141f1c82b}, ! Handle
  1/2IN Gypsum,                           ! Name
  Smooth,                                 ! Roughness
  0.01271,                                ! Thickness {m}
  0.16,                                   ! Conductivity {W/m-K}
  784.9,                                  ! Density {kg/m3}
  830,                                    ! Specific Heat {J/kg-K}
  0.9,                                    ! Thermal Absorptance
  0.92,                                   ! Solar Absorptance
  0.92;                                   ! Visible Absorptance

OS:ComponentCost:LineItem,
  {bc173cd9-14f7-4f8d-ba4d-6b79e2c849fc}, ! Handle
  90.1-1999 Res B26 Ext Wall Wood-Framed and Other, ! Name
  ,                                       ! Type
  Construction,                           ! Line Item Type
  90.1-1999 Res B26 Ext Wall Wood-Framed and Other, ! Item Name
  ,                                       ! Object End Use Key
  ,                                       ! Quantity {dimensionless}
  83.273,                                 ! Material Cost {$}
  CostPerArea;                            ! Material Cost Units

