
OS:Version,
  {36539fee-e955-42d2-86c1-5a47991667d7}, ! Handle
  0.9.3;                                  ! Version Identifier

OS:Construction,
  {b0b642f0-8cf2-4b4d-8ff5-d22a9cbf5fae}, ! Handle
  90.1-1999 Res B16 Ext Slab Unheated - 8in Slab with Carpet, ! Name
  ,                                       ! Surface Rendering Name
  {0c9645b8-5ef6-47b8-8992-5b4130e83f42}, ! Layer 1
  {8cc6132e-85e8-4ec8-86b5-fa4a28140753}; ! Layer 2

OS:Material,
  {0c9645b8-5ef6-47b8-8992-5b4130e83f42}, ! Handle
  MAT-CC05 8 HW CONCRETE,                 ! Name
  Rough,                                  ! Roughness
  0.20321,                                ! Thickness {m}
  1.311,                                  ! Conductivity {W/m-K}
  2240,                                   ! Density {kg/m3}
  836.8,                                  ! Specific Heat {J/kg-K}
  0.9,                                    ! Thermal Absorptance
  0.7,                                    ! Solar Absorptance
  0.7;                                    ! Visible Absorptance

OS:Material:NoMass,
  {8cc6132e-85e8-4ec8-86b5-fa4a28140753}, ! Handle
  CP02 CARPET PAD,                        ! Name
  VeryRough,                              ! Roughness
  0.21648,                                ! Thermal Resistance {m2-K/W}
  0.9,                                    ! Thermal Absorptance
  0.7,                                    ! Solar Absorptance
  0.8;                                    ! Visible Absorptance

OS:ComponentCost:LineItem,
  {51d2d30d-3d5b-4152-851c-01ec09665751}, ! Handle
  90.1-1999 Res B16 Ext Slab Unheated - 8in Slab with Carpet, ! Name
  ,                                       ! Type
  Construction,                           ! Line Item Type
  90.1-1999 Res B16 Ext Slab Unheated - 8in Slab with Carpet, ! Item Name
  ,                                       ! Object End Use Key
  ,                                       ! Quantity {dimensionless}
  45.52,                                  ! Material Cost {$}
  CostPerArea;                            ! Material Cost Units

