
OS:Version,
  {ee160215-45ec-43c9-8e2e-21357baf8aee}, !- Handle
  1.1.0;                                  !- Version Identifier

OS:Construction,
  {7ac6662f-0e9d-41af-a77c-3bb28cfadb2e}, !- Handle
  Dbl Clr Low Iron 5mm/6mm Air,           !- Name
  ,                                       !- Surface Rendering Name
  {a0222c2a-0609-4f23-a111-73423cc9adf8}, !- Layer 1
  {69b8bdee-1acb-4a3b-937c-e0ccddedb3f0}, !- Layer 2
  {a0222c2a-0609-4f23-a111-73423cc9adf8}; !- Layer 3

OS:WindowMaterial:Glazing,
  {a0222c2a-0609-4f23-a111-73423cc9adf8}, !- Handle
  LOW IRON 5MM,                           !- Name
  SpectralAverage,                        !- Optical Data Type
  ,                                       !- Window Glass Spectral Data Set Name
  0.005,                                  !- Thickness {m}
  0.889,                                  !- Solar Transmittance at Normal Incidence
  0.079,                                  !- Front Side Solar Reflectance at Normal Incidence
  0.079,                                  !- Back Side Solar Reflectance at Normal Incidence
  0.91,                                   !- Visible Transmittance at Normal Incidence
  0.082,                                  !- Front Side Visible Reflectance at Normal Incidence
  0.082,                                  !- Back Side Visible Reflectance at Normal Incidence
  0,                                      !- Infrared Transmittance at Normal Incidence
  0.84,                                   !- Front Side Infrared Hemispherical Emissivity
  0.84,                                   !- Back Side Infrared Hemispherical Emissivity
  0.9;                                    !- Conductivity {W/m-K}

OS:WindowMaterial:Gas,
  {69b8bdee-1acb-4a3b-937c-e0ccddedb3f0}, !- Handle
  AIR 6MM,                                !- Name
  Air,                                    !- Gas Type
  0.0063;                                 !- Thickness {m}

