
! 
OS:Version,
  {8503bb35-3288-4176-9c41-752f3d976c4b}, !- Handle
  1.13.0;                                 !- Version Identifier


! 
OS:Material,
  {f795d08f-f9d2-42ce-8c87-6c6c8bad707f}, !- Handle
  Aislamiento: 
WEBER: weber.therm placa de corcho 50 (0.050 m)
R: 1.2 m2K/W,                             !- Name
  MediumRough,                                 !- Roughness
  0.05,                                    !- Thickness {m}
  0.04,                                    !- Conductivity {W/m-K}
  110.0,                                    !- Density {kg/m3}
  1852.0,                                    !- Specific Heat {J/kg-K}
  0.9,                                    !- Thermal Absorptance
  0.6,                                    !- Solar Absorptance
  0.6;                                    !- Visible Absorptance

