
OS:Version,
  {c5ed02e0-d392-4a43-b80a-cc1ec5ef4e9b}, ! Handle
  0.9.3;                                  ! Version Identifier

OS:Construction,
  {7801d471-3767-4da2-9e0b-766a8a1ed6ea}, ! Handle
  90.1-2004 Nonres 3C Ext Slab Unheated - 8in Slab with Carpet, ! Name
  ,                                       ! Surface Rendering Name
  {a2a1172d-54fd-405b-8818-2664f7c6da7a}, ! Layer 1
  {f85a85bb-29db-4145-9bbc-a8ad1f168125}; ! Layer 2

OS:Material,
  {a2a1172d-54fd-405b-8818-2664f7c6da7a}, ! Handle
  MAT-CC05 8 HW CONCRETE,                 ! Name
  Rough,                                  ! Roughness
  0.20321,                                ! Thickness {m}
  1.311,                                  ! Conductivity {W/m-K}
  2240,                                   ! Density {kg/m3}
  836.8,                                  ! Specific Heat {J/kg-K}
  0.9,                                    ! Thermal Absorptance
  0.7,                                    ! Solar Absorptance
  0.7;                                    ! Visible Absorptance

OS:Material:NoMass,
  {f85a85bb-29db-4145-9bbc-a8ad1f168125}, ! Handle
  CP02 CARPET PAD,                        ! Name
  VeryRough,                              ! Roughness
  0.21648,                                ! Thermal Resistance {m2-K/W}
  0.9,                                    ! Thermal Absorptance
  0.7,                                    ! Solar Absorptance
  0.8;                                    ! Visible Absorptance

OS:ComponentCost:LineItem,
  {8b83dc09-8615-4fb5-96bd-9f42a204cbbc}, ! Handle
  90.1-2004 Nonres 3C Ext Slab Unheated - 8in Slab with Carpet, ! Name
  ,                                       ! Type
  Construction,                           ! Line Item Type
  90.1-2004 Nonres 3C Ext Slab Unheated - 8in Slab with Carpet, ! Item Name
  ,                                       ! Object End Use Key
  ,                                       ! Quantity {dimensionless}
  45.52,                                  ! Material Cost {$}
  CostPerArea;                            ! Material Cost Units

OS:ComponentData,
  {45878c30-7b1c-4421-928c-e400985ed236}, ! Handle
  Component Data 1,                       ! Name
  {d8bd68fd-c94d-46a0-a641-7613471de465}, ! UUID
  {4f63a660-c2b1-4055-9178-dd77ac41fa2f}, ! Version UUID
  1363981656,                             ! Creation Timestamp
  1363981656,                             ! Version Timestamp
  {7801d471-3767-4da2-9e0b-766a8a1ed6ea}, ! Name of Object 1
  {a2a1172d-54fd-405b-8818-2664f7c6da7a}, ! Name of Object 2
  {f85a85bb-29db-4145-9bbc-a8ad1f168125}, ! Name of Object 3
  {8b83dc09-8615-4fb5-96bd-9f42a204cbbc}; ! Name of Object 4

