
OS:Version,
  {3b68ffef-a09b-46bf-84f6-7b52de9c8a50}, ! Handle
  0.9.3;                                  ! Version Identifier

OS:Material,
  {69138b6d-c24e-4cb1-9075-593c9df7efe6}, ! Handle
  MAT-CC05 8 HW CONCRETE,                 ! Name
  Rough,                                  ! Roughness
  0.20321,                                ! Thickness {m}
  1.311,                                  ! Conductivity {W/m-K}
  2240,                                   ! Density {kg/m3}
  836.8,                                  ! Specific Heat {J/kg-K}
  0.9,                                    ! Thermal Absorptance
  0.7,                                    ! Solar Absorptance
  0.7;                                    ! Visible Absorptance

OS:Material:NoMass,
  {efc22984-f7f0-4a1c-aa56-8bf31f2f5ef8}, ! Handle
  CP02 CARPET PAD,                        ! Name
  VeryRough,                              ! Roughness
  0.21648,                                ! Thermal Resistance {m2-K/W}
  0.9,                                    ! Thermal Absorptance
  0.7,                                    ! Solar Absorptance
  0.8;                                    ! Visible Absorptance

OS:ComponentCost:LineItem,
  {5ce11a9f-c9e0-4864-b27a-7e6eaf41505b}, ! Handle
  90.1-2004 Nonres 3C Ext Slab Unheated - 8in Slab with Carpet, ! Name
  ,                                       ! Type
  Construction,                           ! Line Item Type
  90.1-2004 Nonres 3C Ext Slab Unheated - 8in Slab with Carpet, ! Item Name
  ,                                       ! Object End Use Key
  ,                                       ! Quantity {dimensionless}
  45.52,                                  ! Material Cost {$}
  CostPerArea;                            ! Material Cost Units

OS:Construction,
  {cfd1a306-fe1d-425e-9781-9a54fd4bea13}, ! Handle
  90.1-2004 Nonres 3C Ext Slab Unheated - 8in Slab with Carpet, ! Name
  ,                                       ! Surface Rendering Name
  {69138b6d-c24e-4cb1-9075-593c9df7efe6}, ! Layer 1
  {efc22984-f7f0-4a1c-aa56-8bf31f2f5ef8}; ! Layer 2

