
OS:Version,
  {737a94bb-a855-4e90-9484-a1e4ee687ba8}, ! Handle
  0.9.3;                                  ! Version Identifier

OS:Material,
  {320dbbc3-94bc-44b8-8f87-75e6927bb0b0}, ! Handle
  MAT-CC05 4 HW CONCRETE,                 ! Name
  Rough,                                  ! Roughness
  0.1016,                                 ! Thickness {m}
  1.311,                                  ! Conductivity {W/m-K}
  2240,                                   ! Density {kg/m3}
  836.8,                                  ! Specific Heat {J/kg-K}
  0.9,                                    ! Thermal Absorptance
  0.7,                                    ! Solar Absorptance
  0.7;                                    ! Visible Absorptance

OS:Construction,
  {6ff92347-7989-4adc-aca6-0876e2d5771a}, ! Handle
  90.1-2007 Res 1A Ext Slab Unheated - 4in Slab without Carpet, ! Name
  ,                                       ! Surface Rendering Name
  {320dbbc3-94bc-44b8-8f87-75e6927bb0b0}; ! Layer 1

OS:ComponentCost:LineItem,
  {e8cdeb1a-ba57-4471-b992-b356f79890d2}, ! Handle
  90.1-2007 Res 1A Ext Slab Unheated - 4in Slab without Carpet, ! Name
  ,                                       ! Type
  Construction,                           ! Line Item Type
  90.1-2007 Res 1A Ext Slab Unheated - 4in Slab without Carpet, ! Item Name
  ,                                       ! Object End Use Key
  ,                                       ! Quantity {dimensionless}
  45.52,                                  ! Material Cost {$}
  CostPerArea;                            ! Material Cost Units

