
OS:Version,
  {9f3dfd31-b8a1-47bf-8bce-02a518b144a8}, ! Handle
  0.9.3;                                  ! Version Identifier

OS:Construction,
  {cf632296-8eba-4bf3-a180-f1969c6ca88b}, ! Handle
  90.1-1999 Nonres B12 Int Wall,          ! Name
  ,                                       ! Surface Rendering Name
  {e9671efd-a8ea-415d-b3d4-8c1e2cbf7e53}, ! Layer 1
  {e9671efd-a8ea-415d-b3d4-8c1e2cbf7e53}; ! Layer 2

OS:Material,
  {e9671efd-a8ea-415d-b3d4-8c1e2cbf7e53}, ! Handle
  GP01 1/2 GYPSUM,                        ! Name
  Smooth,                                 ! Roughness
  0.01271,                                ! Thickness {m}
  0.16,                                   ! Conductivity {W/m-K}
  800,                                    ! Density {kg/m3}
  1090,                                   ! Specific Heat {J/kg-K}
  0.9,                                    ! Thermal Absorptance
  0.7,                                    ! Solar Absorptance
  0.5;                                    ! Visible Absorptance

OS:ComponentCost:LineItem,
  {fea0ad01-6fa2-456e-91b2-66f76b4dfed3}, ! Handle
  90.1-1999 Nonres B12 Int Wall,          ! Name
  ,                                       ! Type
  Construction,                           ! Line Item Type
  90.1-1999 Nonres B12 Int Wall,          ! Item Name
  ,                                       ! Object End Use Key
  ,                                       ! Quantity {dimensionless}
  0,                                      ! Material Cost {$}
  CostPerArea;                            ! Material Cost Units

OS:ComponentData,
  {52af8034-0ce8-437e-af74-8a9039495895}, ! Handle
  Component Data 1,                       ! Name
  {a740a078-8781-4477-80b7-42bc7dc9e6a1}, ! UUID
  {17a0e77f-137b-4a07-bedb-ea10ec773b85}, ! Version UUID
  1363981090,                             ! Creation Timestamp
  1363981090,                             ! Version Timestamp
  {cf632296-8eba-4bf3-a180-f1969c6ca88b}, ! Name of Object 1
  {e9671efd-a8ea-415d-b3d4-8c1e2cbf7e53}, ! Name of Object 2
  {fea0ad01-6fa2-456e-91b2-66f76b4dfed3}; ! Name of Object 3

