
OS:Version,
  {709db96e-e889-4a01-9ae2-e0c532e7aba3}, ! Handle
  0.9.3;                                  ! Version Identifier

OS:Material,
  {83382392-8d10-4dc3-acc0-d23d8e789326}, ! Handle
  1IN Stucco,                             ! Name
  Smooth,                                 ! Roughness
  0.0253,                                 ! Thickness {m}
  0.6918,                                 ! Conductivity {W/m-K}
  1858,                                   ! Density {kg/m3}
  837,                                    ! Specific Heat {J/kg-K}
  0.9,                                    ! Thermal Absorptance
  0.92,                                   ! Solar Absorptance
  0.92;                                   ! Visible Absorptance

OS:ComponentCost:LineItem,
  {92361c08-16b9-49fd-b0e9-619cedc0bba7}, ! Handle
  90.1-1999 Nonres B2 Ext Wall Mass,      ! Name
  ,                                       ! Type
  Construction,                           ! Line Item Type
  90.1-1999 Nonres B2 Ext Wall Mass,      ! Item Name
  ,                                       ! Object End Use Key
  ,                                       ! Quantity {dimensionless}
  41.397,                                 ! Material Cost {$}
  CostPerArea;                            ! Material Cost Units

OS:Construction,
  {8c89cad2-d167-457e-a2ff-437315d58564}, ! Handle
  90.1-1999 Nonres B2 Ext Wall Mass,      ! Name
  ,                                       ! Surface Rendering Name
  {83382392-8d10-4dc3-acc0-d23d8e789326}, ! Layer 1
  {f3e48c1b-60ac-4fcc-a69d-761693eae4bf}, ! Layer 2
  {28cfdb02-19b6-4cc9-a97d-29b23c9e07e3}; ! Layer 3

OS:Material,
  {f3e48c1b-60ac-4fcc-a69d-761693eae4bf}, ! Handle
  8IN Concrete HW,                        ! Name
  MediumRough,                            ! Roughness
  0.2033,                                 ! Thickness {m}
  1.7296,                                 ! Conductivity {W/m-K}
  2243,                                   ! Density {kg/m3}
  837,                                    ! Specific Heat {J/kg-K}
  0.9,                                    ! Thermal Absorptance
  0.65,                                   ! Solar Absorptance
  0.65;                                   ! Visible Absorptance

OS:Material,
  {28cfdb02-19b6-4cc9-a97d-29b23c9e07e3}, ! Handle
  1/2IN Gypsum,                           ! Name
  Smooth,                                 ! Roughness
  0.01271,                                ! Thickness {m}
  0.16,                                   ! Conductivity {W/m-K}
  784.9,                                  ! Density {kg/m3}
  830,                                    ! Specific Heat {J/kg-K}
  0.9,                                    ! Thermal Absorptance
  0.92,                                   ! Solar Absorptance
  0.92;                                   ! Visible Absorptance

