
OS:Version,
  {b29d10cb-e7e0-4194-ab38-1c6587062e52}, ! Handle
  0.9.3;                                  ! Version Identifier

OS:ComponentCost:LineItem,
  {27d4955e-cfa6-44e0-9214-7a103ba937d7}, ! Handle
  90.1-2001 Res B7 Ext Slab Unheated - 4in Slab with Carpet, ! Name
  ,                                       ! Type
  Construction,                           ! Line Item Type
  90.1-2001 Res B7 Ext Slab Unheated - 4in Slab with Carpet, ! Item Name
  ,                                       ! Object End Use Key
  ,                                       ! Quantity {dimensionless}
  45.52,                                  ! Material Cost {$}
  CostPerArea;                            ! Material Cost Units

OS:Construction,
  {62d54109-357c-41fa-ac68-00425da072c5}, ! Handle
  90.1-2001 Res B7 Ext Slab Unheated - 4in Slab with Carpet, ! Name
  ,                                       ! Surface Rendering Name
  {01c5afa5-6ded-4cf2-99ff-da2aa6b59860}, ! Layer 1
  {a4bbbf5d-e2fc-4af7-a50a-1ab7dd3c15a7}; ! Layer 2

OS:Material,
  {01c5afa5-6ded-4cf2-99ff-da2aa6b59860}, ! Handle
  MAT-CC05 4 HW CONCRETE,                 ! Name
  Rough,                                  ! Roughness
  0.1016,                                 ! Thickness {m}
  1.311,                                  ! Conductivity {W/m-K}
  2240,                                   ! Density {kg/m3}
  836.8,                                  ! Specific Heat {J/kg-K}
  0.9,                                    ! Thermal Absorptance
  0.7,                                    ! Solar Absorptance
  0.7;                                    ! Visible Absorptance

OS:Material:NoMass,
  {a4bbbf5d-e2fc-4af7-a50a-1ab7dd3c15a7}, ! Handle
  CP02 CARPET PAD,                        ! Name
  VeryRough,                              ! Roughness
  0.21648,                                ! Thermal Resistance {m2-K/W}
  0.9,                                    ! Thermal Absorptance
  0.7,                                    ! Solar Absorptance
  0.8;                                    ! Visible Absorptance

