
OS:Version,
  {fe96fb3d-a30d-4f06-8a3f-5f4811a0f9f7}, ! Handle
  0.9.3;                                  ! Version Identifier

OS:Material,
  {111b279f-935a-4c1a-98a6-c7a7fd8caab9}, ! Handle
  Metal Roofing,                          ! Name
  MediumSmooth,                           ! Roughness
  0.001524,                               ! Thickness {m}
  45.006,                                 ! Conductivity {W/m-K}
  7680,                                   ! Density {kg/m3}
  418.4,                                  ! Specific Heat {J/kg-K}
  0.9,                                    ! Thermal Absorptance
  0.7,                                    ! Solar Absorptance
  0.3;                                    ! Visible Absorptance

OS:Construction,
  {544fe95a-9269-405d-aff0-7381fdc98de3}, ! Handle
  90.1-1999 Nonres B21 Roof Metal Building, ! Name
  ,                                       ! Surface Rendering Name
  {111b279f-935a-4c1a-98a6-c7a7fd8caab9}, ! Layer 1
  {974212fe-b0d8-4a2b-841f-15985075de7e}; ! Layer 2

OS:Material,
  {974212fe-b0d8-4a2b-841f-15985075de7e}, ! Handle
  Roof Insulation [1],                    ! Name
  MediumRough,                            ! Roughness
  0.123533,                               ! Thickness {m}
  0.049,                                  ! Conductivity {W/m-K}
  265,                                    ! Density {kg/m3}
  836.8,                                  ! Specific Heat {J/kg-K}
  0.9,                                    ! Thermal Absorptance
  0.7,                                    ! Solar Absorptance
  0.7;                                    ! Visible Absorptance

OS:ComponentCost:LineItem,
  {ed166fd8-b10b-4724-924e-415d9eae9540}, ! Handle
  90.1-1999 Nonres B21 Roof Metal Building, ! Name
  ,                                       ! Type
  Construction,                           ! Line Item Type
  90.1-1999 Nonres B21 Roof Metal Building, ! Item Name
  ,                                       ! Object End Use Key
  ,                                       ! Quantity {dimensionless}
  38.206,                                 ! Material Cost {$}
  CostPerArea;                            ! Material Cost Units

