
OS:Version,
  {a4861938-0ede-475d-a3ee-73bc3a0b300b}, ! Handle
  0.9.3;                                  ! Version Identifier

OS:Construction,
  {8951a76c-d6d5-4d58-a370-50b02ba566b4}, ! Handle
  90.1-1999 Nonres B21 Roof Metal Building, ! Name
  ,                                       ! Surface Rendering Name
  {b9e693af-1329-4947-8f2e-6b4680ef788b}, ! Layer 1
  {dd6f78fc-7eff-4c35-98fe-0b6982fff8cb}; ! Layer 2

OS:Material,
  {b9e693af-1329-4947-8f2e-6b4680ef788b}, ! Handle
  Metal Roofing,                          ! Name
  MediumSmooth,                           ! Roughness
  0.001524,                               ! Thickness {m}
  45.006,                                 ! Conductivity {W/m-K}
  7680,                                   ! Density {kg/m3}
  418.4,                                  ! Specific Heat {J/kg-K}
  0.9,                                    ! Thermal Absorptance
  0.7,                                    ! Solar Absorptance
  0.3;                                    ! Visible Absorptance

OS:Material,
  {dd6f78fc-7eff-4c35-98fe-0b6982fff8cb}, ! Handle
  Roof Insulation [1],                    ! Name
  MediumRough,                            ! Roughness
  0.123533,                               ! Thickness {m}
  0.049,                                  ! Conductivity {W/m-K}
  265,                                    ! Density {kg/m3}
  836.8,                                  ! Specific Heat {J/kg-K}
  0.9,                                    ! Thermal Absorptance
  0.7,                                    ! Solar Absorptance
  0.7;                                    ! Visible Absorptance

OS:ComponentCost:LineItem,
  {98d82da6-5337-49fe-8747-69bd953e717c}, ! Handle
  90.1-1999 Nonres B21 Roof Metal Building, ! Name
  ,                                       ! Type
  Construction,                           ! Line Item Type
  90.1-1999 Nonres B21 Roof Metal Building, ! Item Name
  ,                                       ! Object End Use Key
  ,                                       ! Quantity {dimensionless}
  38.206,                                 ! Material Cost {$}
  CostPerArea;                            ! Material Cost Units

OS:ComponentData,
  {1c7af741-fc2a-4324-8da7-772562fc9c22}, ! Handle
  Component Data 1,                       ! Name
  {442fc4be-0e16-46e2-a5b0-3eebd51fa7aa}, ! UUID
  {20fce86e-f439-4746-9690-a4f40340cac8}, ! Version UUID
  1363981132,                             ! Creation Timestamp
  1363981132,                             ! Version Timestamp
  {8951a76c-d6d5-4d58-a370-50b02ba566b4}, ! Name of Object 1
  {b9e693af-1329-4947-8f2e-6b4680ef788b}, ! Name of Object 2
  {dd6f78fc-7eff-4c35-98fe-0b6982fff8cb}, ! Name of Object 3
  {98d82da6-5337-49fe-8747-69bd953e717c}; ! Name of Object 4

