
OS:Version,
  {f61a0185-810d-473f-b3e3-d802c6887372}, ! Handle
  0.9.3;                                  ! Version Identifier

OS:Material,
  {c662fd65-6e1a-4c41-8bf6-4e2f74385bd2}, ! Handle
  1/2IN Gypsum,                           ! Name
  Smooth,                                 ! Roughness
  0.01271,                                ! Thickness {m}
  0.16,                                   ! Conductivity {W/m-K}
  784.9,                                  ! Density {kg/m3}
  830,                                    ! Specific Heat {J/kg-K}
  0.9,                                    ! Thermal Absorptance
  0.92,                                   ! Solar Absorptance
  0.92;                                   ! Visible Absorptance

OS:Material,
  {45535605-fc2d-46fe-abe3-d5a4673cf350}, ! Handle
  1IN Wood Decking,                       ! Name
  MediumSmooth,                           ! Roughness
  0.0254,                                 ! Thickness {m}
  0.1211,                                 ! Conductivity {W/m-K}
  593,                                    ! Density {kg/m3}
  2510,                                   ! Specific Heat {J/kg-K}
  0.9,                                    ! Thermal Absorptance
  0.78,                                   ! Solar Absorptance
  0.78;                                   ! Visible Absorptance

OS:Construction,
  {a7813153-0847-4d98-a56a-6ae4324e9f46}, ! Handle
  90.1-2001 Res B4 Roof Attic and Other,  ! Name
  ,                                       ! Surface Rendering Name
  {023cc732-62de-4fdd-b990-0e67f15f9a38}, ! Layer 1
  {45535605-fc2d-46fe-abe3-d5a4673cf350}, ! Layer 2
  {16acfbf3-16bd-4172-8db1-6a0bca52a772}, ! Layer 3
  {c662fd65-6e1a-4c41-8bf6-4e2f74385bd2}; ! Layer 4

OS:Material,
  {023cc732-62de-4fdd-b990-0e67f15f9a38}, ! Handle
  Wood Shingles,                          ! Name
  VeryRough,                              ! Roughness
  0.0178,                                 ! Thickness {m}
  0.115,                                  ! Conductivity {W/m-K}
  513,                                    ! Density {kg/m3}
  1255,                                   ! Specific Heat {J/kg-K}
  0.9,                                    ! Thermal Absorptance
  0.78,                                   ! Solar Absorptance
  0.78;                                   ! Visible Absorptance

OS:Material,
  {16acfbf3-16bd-4172-8db1-6a0bca52a772}, ! Handle
  Roof Insulation [2],                    ! Name
  MediumRough,                            ! Roughness
  0.221604,                               ! Thickness {m}
  0.049,                                  ! Conductivity {W/m-K}
  265,                                    ! Density {kg/m3}
  836.8,                                  ! Specific Heat {J/kg-K}
  0.9,                                    ! Thermal Absorptance
  0.7,                                    ! Solar Absorptance
  0.7;                                    ! Visible Absorptance

OS:ComponentCost:LineItem,
  {2fe4c12c-12d2-4ee7-9660-272b83f88805}, ! Handle
  90.1-2001 Res B4 Roof Attic and Other,  ! Name
  ,                                       ! Type
  Construction,                           ! Line Item Type
  90.1-2001 Res B4 Roof Attic and Other,  ! Item Name
  ,                                       ! Object End Use Key
  ,                                       ! Quantity {dimensionless}
  33.39,                                  ! Material Cost {$}
  CostPerArea;                            ! Material Cost Units

