
OS:Version,
  {b0f0d601-605c-4e3f-a8d6-71e3a4d49d53}, ! Handle
  0.9.3;                                  ! Version Identifier

OS:Construction,
  {40cec827-74f6-42a6-9aee-2e4b0edd353d}, ! Handle
  90.1-2007 Res 8A Window Metal framing curtainwall-storefront, ! Name
  ,                                       ! Surface Rendering Name
  {9a0ccf5a-7192-4848-80a7-de9a8346c013}; ! Layer 1

OS:WindowMaterial:Glazing,
  {9a0ccf5a-7192-4848-80a7-de9a8346c013}, ! Handle
  Theoretical Glass [189],                ! Name
  SpectralAverage,                        ! Optical Data Type
  ,                                       ! Window Glass Spectral Data Set Name
  0.003,                                  ! Thickness {m}
  0.444641,                               ! Solar Transmittance at Normal Incidence
  0.505359,                               ! Front Side Solar Reflectance at Normal Incidence
  0.505359,                               ! Back Side Solar Reflectance at Normal Incidence
  0.450308,                               ! Visible Transmittance at Normal Incidence
  0.499692,                               ! Front Side Visible Reflectance at Normal Incidence
  0.499692,                               ! Back Side Visible Reflectance at Normal Incidence
  0,                                      ! Infrared Transmittance at Normal Incidence
  0.9,                                    ! Front Side Infrared Hemispherical Emissivity
  0.9,                                    ! Back Side Infrared Hemispherical Emissivity
  0.0107657;                              ! Conductivity {W/m-K}

OS:ComponentCost:LineItem,
  {4209d269-c1fd-4a46-b90f-20b22d5e3182}, ! Handle
  90.1-2007 Res 8A Window Metal framing curtainwall-storefront, ! Name
  ,                                       ! Type
  Construction,                           ! Line Item Type
  90.1-2007 Res 8A Window Metal framing curtainwall-storefront, ! Item Name
  ,                                       ! Object End Use Key
  ,                                       ! Quantity {dimensionless}
  508.362,                                ! Material Cost {$}
  CostPerArea;                            ! Material Cost Units

OS:ComponentData,
  {67d42a1f-e9ec-4309-b110-923b85cb7d04}, ! Handle
  Component Data 1,                       ! Name
  {68604839-db68-43c3-81ed-ef004690c800}, ! UUID
  {a554c395-8ad4-4037-9634-d26fbdcc68e8}, ! Version UUID
  1363981879,                             ! Creation Timestamp
  1363981879,                             ! Version Timestamp
  {40cec827-74f6-42a6-9aee-2e4b0edd353d}, ! Name of Object 1
  {9a0ccf5a-7192-4848-80a7-de9a8346c013}, ! Name of Object 2
  {4209d269-c1fd-4a46-b90f-20b22d5e3182}; ! Name of Object 3

