
OS:Version,
  {0d0e2b72-864d-4eda-ac70-dcad681fdad0}, ! Handle
  0.9.3;                                  ! Version Identifier

OS:WindowMaterial:Glazing,
  {bf302d63-5426-4a4a-bbb0-015e10cf62f9}, ! Handle
  Theoretical Glass [189],                ! Name
  SpectralAverage,                        ! Optical Data Type
  ,                                       ! Window Glass Spectral Data Set Name
  0.003,                                  ! Thickness {m}
  0.444641,                               ! Solar Transmittance at Normal Incidence
  0.505359,                               ! Front Side Solar Reflectance at Normal Incidence
  0.505359,                               ! Back Side Solar Reflectance at Normal Incidence
  0.450308,                               ! Visible Transmittance at Normal Incidence
  0.499692,                               ! Front Side Visible Reflectance at Normal Incidence
  0.499692,                               ! Back Side Visible Reflectance at Normal Incidence
  0,                                      ! Infrared Transmittance at Normal Incidence
  0.9,                                    ! Front Side Infrared Hemispherical Emissivity
  0.9,                                    ! Back Side Infrared Hemispherical Emissivity
  0.0107657;                              ! Conductivity {W/m-K}

OS:Construction,
  {5e6fcb1e-4db7-45ce-825a-540c1fc8fa07}, ! Handle
  90.1-2007 Res 8A Window Metal framing curtainwall-storefront, ! Name
  ,                                       ! Surface Rendering Name
  {bf302d63-5426-4a4a-bbb0-015e10cf62f9}; ! Layer 1

OS:ComponentCost:LineItem,
  {25495913-2ebd-447b-b9ac-40d9d6a3b3e6}, ! Handle
  90.1-2007 Res 8A Window Metal framing curtainwall-storefront, ! Name
  ,                                       ! Type
  Construction,                           ! Line Item Type
  90.1-2007 Res 8A Window Metal framing curtainwall-storefront, ! Item Name
  ,                                       ! Object End Use Key
  ,                                       ! Quantity {dimensionless}
  508.362,                                ! Material Cost {$}
  CostPerArea;                            ! Material Cost Units

