
OS:Version,
  {db3daa74-0c3b-4dcb-ad49-618f03504771}, ! Handle
  0.9.3;                                  ! Version Identifier

OS:Construction,
  {7e672a67-a3bd-4a27-ab0b-1f8641ace063}, ! Handle
  90.1-2004 Nonres 8A Ext Slab Unheated - 8in Slab with Carpet, ! Name
  ,                                       ! Surface Rendering Name
  {6c4313ee-95b7-4c70-9170-1d798eb11f66}, ! Layer 1
  {66073ca9-4e0e-4f1f-9c56-a852661302f7}; ! Layer 2

OS:Material,
  {6c4313ee-95b7-4c70-9170-1d798eb11f66}, ! Handle
  MAT-CC05 8 HW CONCRETE,                 ! Name
  Rough,                                  ! Roughness
  0.20321,                                ! Thickness {m}
  1.311,                                  ! Conductivity {W/m-K}
  2240,                                   ! Density {kg/m3}
  836.8,                                  ! Specific Heat {J/kg-K}
  0.9,                                    ! Thermal Absorptance
  0.7,                                    ! Solar Absorptance
  0.7;                                    ! Visible Absorptance

OS:Material:NoMass,
  {66073ca9-4e0e-4f1f-9c56-a852661302f7}, ! Handle
  CP02 CARPET PAD,                        ! Name
  VeryRough,                              ! Roughness
  0.21648,                                ! Thermal Resistance {m2-K/W}
  0.9,                                    ! Thermal Absorptance
  0.7,                                    ! Solar Absorptance
  0.8;                                    ! Visible Absorptance

OS:ComponentCost:LineItem,
  {223d3a28-c06a-416a-8072-53f02a516113}, ! Handle
  90.1-2004 Nonres 8A Ext Slab Unheated - 8in Slab with Carpet, ! Name
  ,                                       ! Type
  Construction,                           ! Line Item Type
  90.1-2004 Nonres 8A Ext Slab Unheated - 8in Slab with Carpet, ! Item Name
  ,                                       ! Object End Use Key
  ,                                       ! Quantity {dimensionless}
  45.52,                                  ! Material Cost {$}
  CostPerArea;                            ! Material Cost Units

