
OS:Version,
  {5bc22468-7659-41f3-93f3-2348ffed080b}, ! Handle
  0.9.3;                                  ! Version Identifier

OS:ComponentCost:LineItem,
  {a172675f-7f61-46b7-b213-0973ca95a9ab}, ! Handle
  90.1-1999 Res B22 Roof IEAD,            ! Name
  ,                                       ! Type
  Construction,                           ! Line Item Type
  90.1-1999 Res B22 Roof IEAD,            ! Item Name
  ,                                       ! Object End Use Key
  ,                                       ! Quantity {dimensionless}
  49.208,                                 ! Material Cost {$}
  CostPerArea;                            ! Material Cost Units

OS:Material,
  {3b84b613-1bec-4d70-8273-bd0436162526}, ! Handle
  Metal Decking,                          ! Name
  MediumSmooth,                           ! Roughness
  0.001524,                               ! Thickness {m}
  45.006,                                 ! Conductivity {W/m-K}
  7680,                                   ! Density {kg/m3}
  418.4,                                  ! Specific Heat {J/kg-K}
  0.9,                                    ! Thermal Absorptance
  0.7,                                    ! Solar Absorptance
  0.3;                                    ! Visible Absorptance

OS:Material,
  {0c67617c-3685-4e9f-b061-6796a5ffc681}, ! Handle
  Roof Insulation,                        ! Name
  MediumRough,                            ! Roughness
  0.124958,                               ! Thickness {m}
  0.049,                                  ! Conductivity {W/m-K}
  265,                                    ! Density {kg/m3}
  836.8,                                  ! Specific Heat {J/kg-K}
  0.9,                                    ! Thermal Absorptance
  0.7,                                    ! Solar Absorptance
  0.7;                                    ! Visible Absorptance

OS:Construction,
  {cf594841-78a5-4c69-bc0c-add8204773e5}, ! Handle
  90.1-1999 Res B22 Roof IEAD,            ! Name
  ,                                       ! Surface Rendering Name
  {c92bdf00-4bb1-40b8-aba2-5477621cc667}, ! Layer 1
  {0c67617c-3685-4e9f-b061-6796a5ffc681}, ! Layer 2
  {3b84b613-1bec-4d70-8273-bd0436162526}; ! Layer 3

OS:Material,
  {c92bdf00-4bb1-40b8-aba2-5477621cc667}, ! Handle
  Roof Membrane,                          ! Name
  VeryRough,                              ! Roughness
  0.0095,                                 ! Thickness {m}
  0.16,                                   ! Conductivity {W/m-K}
  1121.29,                                ! Density {kg/m3}
  1460,                                   ! Specific Heat {J/kg-K}
  0.9,                                    ! Thermal Absorptance
  0.7,                                    ! Solar Absorptance
  0.7;                                    ! Visible Absorptance

