
OS:Version,
  {f294ea14-6fc1-4007-b9aa-ae4067c99d13}, ! Handle
  0.9.3;                                  ! Version Identifier

OS:Construction,
  {fa1a7b2a-d24b-4ab2-9646-39b4ed16004f}, ! Handle
  189.1-2009 Nonres 4B Door Non-Swinging, ! Name
  ,                                       ! Surface Rendering Name
  {fba3a262-a156-4fec-bde6-ebbf0b0f6908}, ! Layer 1
  {3eb26f72-8f6e-477e-9fe3-a7e64f5e6649}, ! Layer 2
  {d045e87f-d840-4fb2-9284-e190ddbf9720}; ! Layer 3

OS:Material,
  {fba3a262-a156-4fec-bde6-ebbf0b0f6908}, ! Handle
  METAL Door Medium 18Ga,                 ! Name
  Smooth,                                 ! Roughness
  0.0013106,                              ! Thickness {m}
  45.3149,                                ! Conductivity {W/m-K}
  7833.03,                                ! Density {kg/m3}
  502.08,                                 ! Specific Heat {J/kg-K}
  0.8,                                    ! Thermal Absorptance
  0.5,                                    ! Solar Absorptance
  0.5;                                    ! Visible Absorptance

OS:Material:NoMass,
  {3eb26f72-8f6e-477e-9fe3-a7e64f5e6649}, ! Handle
  AIR [5],                                ! Name
  Smooth,                                 ! Roughness
  0.440339,                               ! Thermal Resistance {m2-K/W}
  0.8,                                    ! Thermal Absorptance
  0.5,                                    ! Solar Absorptance
  0.5;                                    ! Visible Absorptance

OS:Material,
  {d045e87f-d840-4fb2-9284-e190ddbf9720}, ! Handle
  METAL Door Medium 18Ga_2,               ! Name
  Smooth,                                 ! Roughness
  0.0013106,                              ! Thickness {m}
  45.3149,                                ! Conductivity {W/m-K}
  7833.03,                                ! Density {kg/m3}
  502.08,                                 ! Specific Heat {J/kg-K}
  0.8,                                    ! Thermal Absorptance
  0.5,                                    ! Solar Absorptance
  0.5;                                    ! Visible Absorptance

OS:ComponentCost:LineItem,
  {24c22637-64c4-4254-a2ed-ba4de1848e2d}, ! Handle
  189.1-2009 Nonres 4B Door Non-Swinging, ! Name
  ,                                       ! Type
  Construction,                           ! Line Item Type
  189.1-2009 Nonres 4B Door Non-Swinging, ! Item Name
  ,                                       ! Object End Use Key
  ,                                       ! Quantity {dimensionless}
  0,                                      ! Material Cost {$}
  CostPerArea;                            ! Material Cost Units

OS:ComponentData,
  {689fac82-6c38-4602-a3a8-7e4cd605a5d8}, ! Handle
  Component Data 1,                       ! Name
  {e292c3d9-1d31-4c41-99e6-cc38696a31dc}, ! UUID
  {e9fa49d8-c809-4262-bd88-97ae8f88dde9}, ! Version UUID
  1363980941,                             ! Creation Timestamp
  1363980941,                             ! Version Timestamp
  {fa1a7b2a-d24b-4ab2-9646-39b4ed16004f}, ! Name of Object 1
  {fba3a262-a156-4fec-bde6-ebbf0b0f6908}, ! Name of Object 2
  {3eb26f72-8f6e-477e-9fe3-a7e64f5e6649}, ! Name of Object 3
  {d045e87f-d840-4fb2-9284-e190ddbf9720}, ! Name of Object 4
  {24c22637-64c4-4254-a2ed-ba4de1848e2d}; ! Name of Object 5

