
OS:Version,
  {d0a384ad-a902-4a66-80ae-29a1ccc2d103}, ! Handle
  0.9.3;                                  ! Version Identifier

OS:Construction,
  {d6bc7f7a-5697-434d-81e6-14aad4ebb845}, ! Handle
  189.1-2009 Nonres 4B Roof Attic and Other, ! Name
  ,                                       ! Surface Rendering Name
  {660d1271-d548-4f81-ad7e-67dddc4f5e55}, ! Layer 1
  {70c6a8ef-1200-4fa3-8817-e356034d4118}, ! Layer 2
  {9f31c59b-96c0-4170-953f-af533d6a157d}, ! Layer 3
  {d67cb513-f130-4478-b3f2-cfb3df7cd448}; ! Layer 4

OS:Material,
  {660d1271-d548-4f81-ad7e-67dddc4f5e55}, ! Handle
  Wood Shingles,                          ! Name
  VeryRough,                              ! Roughness
  0.0178,                                 ! Thickness {m}
  0.115,                                  ! Conductivity {W/m-K}
  513,                                    ! Density {kg/m3}
  1255,                                   ! Specific Heat {J/kg-K}
  0.9,                                    ! Thermal Absorptance
  0.78,                                   ! Solar Absorptance
  0.78;                                   ! Visible Absorptance

OS:Material,
  {70c6a8ef-1200-4fa3-8817-e356034d4118}, ! Handle
  1IN Wood Decking,                       ! Name
  MediumSmooth,                           ! Roughness
  0.0254,                                 ! Thickness {m}
  0.1211,                                 ! Conductivity {W/m-K}
  593,                                    ! Density {kg/m3}
  2510,                                   ! Specific Heat {J/kg-K}
  0.9,                                    ! Thermal Absorptance
  0.78,                                   ! Solar Absorptance
  0.78;                                   ! Visible Absorptance

OS:Material,
  {9f31c59b-96c0-4170-953f-af533d6a157d}, ! Handle
  Roof Insulation [23],                   ! Name
  MediumRough,                            ! Roughness
  0.375211,                               ! Thickness {m}
  0.049,                                  ! Conductivity {W/m-K}
  265,                                    ! Density {kg/m3}
  836.8,                                  ! Specific Heat {J/kg-K}
  0.9,                                    ! Thermal Absorptance
  0.7,                                    ! Solar Absorptance
  0.7;                                    ! Visible Absorptance

OS:Material,
  {d67cb513-f130-4478-b3f2-cfb3df7cd448}, ! Handle
  1/2IN Gypsum,                           ! Name
  Smooth,                                 ! Roughness
  0.01271,                                ! Thickness {m}
  0.16,                                   ! Conductivity {W/m-K}
  784.9,                                  ! Density {kg/m3}
  830,                                    ! Specific Heat {J/kg-K}
  0.9,                                    ! Thermal Absorptance
  0.92,                                   ! Solar Absorptance
  0.92;                                   ! Visible Absorptance

OS:ComponentCost:LineItem,
  {112f0ca4-de79-4204-a588-1e56ea624b01}, ! Handle
  189.1-2009 Nonres 4B Roof Attic and Other, ! Name
  ,                                       ! Type
  Construction,                           ! Line Item Type
  189.1-2009 Nonres 4B Roof Attic and Other, ! Item Name
  ,                                       ! Object End Use Key
  ,                                       ! Quantity {dimensionless}
  36.871,                                 ! Material Cost {$}
  CostPerArea;                            ! Material Cost Units

