
OS:Version,
  {d8897dd1-d59d-4cf5-833f-a2917c5aef94}, ! Handle
  0.9.3;                                  ! Version Identifier

OS:Construction,
  {d65abdeb-619c-4a23-80b4-e5c3a912db93}, ! Handle
  90.1-2001 Nonres B20 Ext Wall Steel-Framed, ! Name
  ,                                       ! Surface Rendering Name
  {9742c9d3-5559-4a44-9db0-3151fde1919d}, ! Layer 1
  {089d21f2-980c-4633-bf30-e13d2b6c42ae}, ! Layer 2
  {a9bdc50a-f85c-436d-a2bd-4f9c2ff527df}; ! Layer 3

OS:Material:NoMass,
  {9742c9d3-5559-4a44-9db0-3151fde1919d}, ! Handle
  MAT-SHEATH,                             ! Name
  Rough,                                  ! Roughness
  0.36256,                                ! Thermal Resistance {m2-K/W}
  0.9,                                    ! Thermal Absorptance
  0.7,                                    ! Solar Absorptance
  0.7;                                    ! Visible Absorptance

OS:Material,
  {089d21f2-980c-4633-bf30-e13d2b6c42ae}, ! Handle
  Wall Insulation [6],                    ! Name
  MediumRough,                            ! Roughness
  0.0678449,                              ! Thickness {m}
  0.045,                                  ! Conductivity {W/m-K}
  265,                                    ! Density {kg/m3}
  836.8,                                  ! Specific Heat {J/kg-K}
  0.9,                                    ! Thermal Absorptance
  0.7,                                    ! Solar Absorptance
  0.7;                                    ! Visible Absorptance

OS:Material,
  {a9bdc50a-f85c-436d-a2bd-4f9c2ff527df}, ! Handle
  1/2IN Gypsum,                           ! Name
  Smooth,                                 ! Roughness
  0.01271,                                ! Thickness {m}
  0.16,                                   ! Conductivity {W/m-K}
  784.9,                                  ! Density {kg/m3}
  830,                                    ! Specific Heat {J/kg-K}
  0.9,                                    ! Thermal Absorptance
  0.92,                                   ! Solar Absorptance
  0.92;                                   ! Visible Absorptance

OS:ComponentCost:LineItem,
  {5e86739c-df73-4e00-81c9-09cdd42ee734}, ! Handle
  90.1-2001 Nonres B20 Ext Wall Steel-Framed, ! Name
  ,                                       ! Type
  Construction,                           ! Line Item Type
  90.1-2001 Nonres B20 Ext Wall Steel-Framed, ! Item Name
  ,                                       ! Object End Use Key
  ,                                       ! Quantity {dimensionless}
  91.749,                                 ! Material Cost {$}
  CostPerArea;                            ! Material Cost Units

OS:ComponentData,
  {8ad41001-a2aa-4fa0-9157-4a671b385a70}, ! Handle
  Component Data 1,                       ! Name
  {21fe9b8b-037a-42b7-b393-b09317e73451}, ! UUID
  {e9e884f6-d3c2-4185-8971-7f12386c900e}, ! Version UUID
  1363981400,                             ! Creation Timestamp
  1363981400,                             ! Version Timestamp
  {d65abdeb-619c-4a23-80b4-e5c3a912db93}, ! Name of Object 1
  {9742c9d3-5559-4a44-9db0-3151fde1919d}, ! Name of Object 2
  {089d21f2-980c-4633-bf30-e13d2b6c42ae}, ! Name of Object 3
  {a9bdc50a-f85c-436d-a2bd-4f9c2ff527df}, ! Name of Object 4
  {5e86739c-df73-4e00-81c9-09cdd42ee734}; ! Name of Object 5

