
OS:Version,
  {cc6abb8d-460f-4cee-9c47-914db47af320}, ! Handle
  0.9.3;                                  ! Version Identifier

OS:Construction,
  {d89ec598-1b96-4009-b003-5cb2884b09fa}, ! Handle
  90.1-2001 Nonres B20 Ext Wall Steel-Framed, ! Name
  ,                                       ! Surface Rendering Name
  {f46ffa02-9d02-469a-8790-7d473c36b5fb}, ! Layer 1
  {847fe81d-3f27-4b2a-8649-8da8d093cf78}, ! Layer 2
  {2b70b341-83d1-4a27-9fe8-5633b6878362}; ! Layer 3

OS:Material:NoMass,
  {f46ffa02-9d02-469a-8790-7d473c36b5fb}, ! Handle
  MAT-SHEATH,                             ! Name
  Rough,                                  ! Roughness
  0.36256,                                ! Thermal Resistance {m2-K/W}
  0.9,                                    ! Thermal Absorptance
  0.7,                                    ! Solar Absorptance
  0.7;                                    ! Visible Absorptance

OS:Material,
  {847fe81d-3f27-4b2a-8649-8da8d093cf78}, ! Handle
  Wall Insulation [6],                    ! Name
  MediumRough,                            ! Roughness
  0.0678449,                              ! Thickness {m}
  0.045,                                  ! Conductivity {W/m-K}
  265,                                    ! Density {kg/m3}
  836.8,                                  ! Specific Heat {J/kg-K}
  0.9,                                    ! Thermal Absorptance
  0.7,                                    ! Solar Absorptance
  0.7;                                    ! Visible Absorptance

OS:Material,
  {2b70b341-83d1-4a27-9fe8-5633b6878362}, ! Handle
  1/2IN Gypsum,                           ! Name
  Smooth,                                 ! Roughness
  0.01271,                                ! Thickness {m}
  0.16,                                   ! Conductivity {W/m-K}
  784.9,                                  ! Density {kg/m3}
  830,                                    ! Specific Heat {J/kg-K}
  0.9,                                    ! Thermal Absorptance
  0.92,                                   ! Solar Absorptance
  0.92;                                   ! Visible Absorptance

OS:ComponentCost:LineItem,
  {83b46d78-cabf-446d-a5fa-328e1739c7aa}, ! Handle
  90.1-2001 Nonres B20 Ext Wall Steel-Framed, ! Name
  ,                                       ! Type
  Construction,                           ! Line Item Type
  90.1-2001 Nonres B20 Ext Wall Steel-Framed, ! Item Name
  ,                                       ! Object End Use Key
  ,                                       ! Quantity {dimensionless}
  91.749,                                 ! Material Cost {$}
  CostPerArea;                            ! Material Cost Units

