
OS:Version,
  {4607c482-efad-4b16-bbed-45c5643935f1}, ! Handle
  0.9.3;                                  ! Version Identifier

OS:Material,
  {7939027a-d95a-4ab4-b531-73e8cda3292d}, ! Handle
  Wall Insulation [43],                   ! Name
  MediumRough,                            ! Roughness
  0.15833,                                ! Thickness {m}
  0.045,                                  ! Conductivity {W/m-K}
  265,                                    ! Density {kg/m3}
  836.8,                                  ! Specific Heat {J/kg-K}
  0.9,                                    ! Thermal Absorptance
  0.7,                                    ! Solar Absorptance
  0.7;                                    ! Visible Absorptance

OS:ComponentCost:LineItem,
  {9da806fd-e17a-4722-907a-5d98b7e52800}, ! Handle
  189.1-2009 Nonres 6B Ext Wall Wood-Framed and Other, ! Name
  ,                                       ! Type
  Construction,                           ! Line Item Type
  189.1-2009 Nonres 6B Ext Wall Wood-Framed and Other, ! Item Name
  ,                                       ! Object End Use Key
  ,                                       ! Quantity {dimensionless}
  82.923,                                 ! Material Cost {$}
  CostPerArea;                            ! Material Cost Units

OS:Material,
  {bdaf85ee-1365-47a0-93fb-d89da8cd87f7}, ! Handle
  1/2IN Gypsum,                           ! Name
  Smooth,                                 ! Roughness
  0.01271,                                ! Thickness {m}
  0.16,                                   ! Conductivity {W/m-K}
  784.9,                                  ! Density {kg/m3}
  830,                                    ! Specific Heat {J/kg-K}
  0.9,                                    ! Thermal Absorptance
  0.92,                                   ! Solar Absorptance
  0.92;                                   ! Visible Absorptance

OS:Construction,
  {2294884d-afab-4c38-94ed-3f443dd3d73c}, ! Handle
  189.1-2009 Nonres 6B Ext Wall Wood-Framed and Other, ! Name
  ,                                       ! Surface Rendering Name
  {1d68b05b-cca2-4729-a911-5a106338d347}, ! Layer 1
  {7939027a-d95a-4ab4-b531-73e8cda3292d}, ! Layer 2
  {bdaf85ee-1365-47a0-93fb-d89da8cd87f7}; ! Layer 3

OS:Material,
  {1d68b05b-cca2-4729-a911-5a106338d347}, ! Handle
  Wood Siding,                            ! Name
  MediumSmooth,                           ! Roughness
  0.01,                                   ! Thickness {m}
  0.11,                                   ! Conductivity {W/m-K}
  544.62,                                 ! Density {kg/m3}
  1210,                                   ! Specific Heat {J/kg-K}
  0.9,                                    ! Thermal Absorptance
  0.78,                                   ! Solar Absorptance
  0.78;                                   ! Visible Absorptance

