
OS:Version,
  {98646e03-5d12-4b0a-b7ba-2f17c78e7bc6}, ! Handle
  0.9.3;                                  ! Version Identifier

OS:Construction,
  {718f904f-58b1-44f0-beaf-8bccccc76805}, ! Handle
  189.1-2009 Nonres 6B Ext Wall Wood-Framed and Other, ! Name
  ,                                       ! Surface Rendering Name
  {097c3eaa-449b-4f83-bf7a-0725104aad27}, ! Layer 1
  {ef60f2eb-0c9a-4bc2-9573-ec7b594c0d49}, ! Layer 2
  {cacf1ffd-1ba4-42c5-ad97-09a843299efb}; ! Layer 3

OS:Material,
  {097c3eaa-449b-4f83-bf7a-0725104aad27}, ! Handle
  Wood Siding,                            ! Name
  MediumSmooth,                           ! Roughness
  0.01,                                   ! Thickness {m}
  0.11,                                   ! Conductivity {W/m-K}
  544.62,                                 ! Density {kg/m3}
  1210,                                   ! Specific Heat {J/kg-K}
  0.9,                                    ! Thermal Absorptance
  0.78,                                   ! Solar Absorptance
  0.78;                                   ! Visible Absorptance

OS:Material,
  {ef60f2eb-0c9a-4bc2-9573-ec7b594c0d49}, ! Handle
  Wall Insulation [43],                   ! Name
  MediumRough,                            ! Roughness
  0.15833,                                ! Thickness {m}
  0.045,                                  ! Conductivity {W/m-K}
  265,                                    ! Density {kg/m3}
  836.8,                                  ! Specific Heat {J/kg-K}
  0.9,                                    ! Thermal Absorptance
  0.7,                                    ! Solar Absorptance
  0.7;                                    ! Visible Absorptance

OS:Material,
  {cacf1ffd-1ba4-42c5-ad97-09a843299efb}, ! Handle
  1/2IN Gypsum,                           ! Name
  Smooth,                                 ! Roughness
  0.01271,                                ! Thickness {m}
  0.16,                                   ! Conductivity {W/m-K}
  784.9,                                  ! Density {kg/m3}
  830,                                    ! Specific Heat {J/kg-K}
  0.9,                                    ! Thermal Absorptance
  0.92,                                   ! Solar Absorptance
  0.92;                                   ! Visible Absorptance

OS:ComponentCost:LineItem,
  {403ca5d6-2124-4a90-9522-45aa89ce4d0e}, ! Handle
  189.1-2009 Nonres 6B Ext Wall Wood-Framed and Other, ! Name
  ,                                       ! Type
  Construction,                           ! Line Item Type
  189.1-2009 Nonres 6B Ext Wall Wood-Framed and Other, ! Item Name
  ,                                       ! Object End Use Key
  ,                                       ! Quantity {dimensionless}
  82.923,                                 ! Material Cost {$}
  CostPerArea;                            ! Material Cost Units

OS:ComponentData,
  {b762356d-a8df-4d21-91ef-455fc47c19b3}, ! Handle
  Component Data 1,                       ! Name
  {9173d867-f175-4bb9-a2e2-90205e4faa8a}, ! UUID
  {6182d1ac-40dd-4155-8ca7-cf48e561fa96}, ! Version UUID
  1363980947,                             ! Creation Timestamp
  1363980947,                             ! Version Timestamp
  {718f904f-58b1-44f0-beaf-8bccccc76805}, ! Name of Object 1
  {097c3eaa-449b-4f83-bf7a-0725104aad27}, ! Name of Object 2
  {ef60f2eb-0c9a-4bc2-9573-ec7b594c0d49}, ! Name of Object 3
  {cacf1ffd-1ba4-42c5-ad97-09a843299efb}, ! Name of Object 4
  {403ca5d6-2124-4a90-9522-45aa89ce4d0e}; ! Name of Object 5

