
OS:Version,
  {f0755eb2-325f-44dc-9965-0961f5cc4b70}, ! Handle
  0.9.3;                                  ! Version Identifier

OS:WindowMaterial:Glazing,
  {b1dd3ed6-3da3-4a25-b292-e771bff8e8e1}, ! Handle
  Theoretical Glass [87],                 ! Name
  SpectralAverage,                        ! Optical Data Type
  ,                                       ! Window Glass Spectral Data Set Name
  0.003,                                  ! Thickness {m}
  0.343048,                               ! Solar Transmittance at Normal Incidence
  0.606952,                               ! Front Side Solar Reflectance at Normal Incidence
  0.606952,                               ! Back Side Solar Reflectance at Normal Incidence
  0.360158,                               ! Visible Transmittance at Normal Incidence
  0.589842,                               ! Front Side Visible Reflectance at Normal Incidence
  0.589842,                               ! Back Side Visible Reflectance at Normal Incidence
  0,                                      ! Infrared Transmittance at Normal Incidence
  0.9,                                    ! Front Side Infrared Hemispherical Emissivity
  0.9,                                    ! Back Side Infrared Hemispherical Emissivity
  0.0324872;                              ! Conductivity {W/m-K}

OS:ComponentCost:LineItem,
  {13bc85c6-4e66-48aa-a017-13bff2178796}, ! Handle
  90.1-1999 Res B14 Skylight without Curb, ! Name
  ,                                       ! Type
  Construction,                           ! Line Item Type
  90.1-1999 Res B14 Skylight without Curb, ! Item Name
  ,                                       ! Object End Use Key
  ,                                       ! Quantity {dimensionless}
  514.818,                                ! Material Cost {$}
  CostPerArea;                            ! Material Cost Units

OS:Construction,
  {abf6eb5c-611e-4975-baee-ef440970f4cb}, ! Handle
  90.1-1999 Res B14 Skylight without Curb, ! Name
  ,                                       ! Surface Rendering Name
  {b1dd3ed6-3da3-4a25-b292-e771bff8e8e1}; ! Layer 1

