
OS:Version,
  {9dc9a8fb-fae0-4055-bd44-d6286c1ed880}, ! Handle
  0.9.3;                                  ! Version Identifier

OS:Construction,
  {92d47f87-c590-4f0a-852c-2152ebb8193a}, ! Handle
  189.1-2009 Nonres 6B Ext Slab Unheated - 8in Slab without Carpet, ! Name
  ,                                       ! Surface Rendering Name
  {b8855d84-6697-4177-a0c9-9d5359da7863}; ! Layer 1

OS:Material,
  {b8855d84-6697-4177-a0c9-9d5359da7863}, ! Handle
  MAT-CC05 8 HW CONCRETE,                 ! Name
  Rough,                                  ! Roughness
  0.20321,                                ! Thickness {m}
  1.311,                                  ! Conductivity {W/m-K}
  2240,                                   ! Density {kg/m3}
  836.8,                                  ! Specific Heat {J/kg-K}
  0.9,                                    ! Thermal Absorptance
  0.7,                                    ! Solar Absorptance
  0.7;                                    ! Visible Absorptance

OS:ComponentCost:LineItem,
  {6aa0d374-4974-4b02-b082-f07d71f519fc}, ! Handle
  189.1-2009 Nonres 6B Ext Slab Unheated - 8in Slab without Carpet, ! Name
  ,                                       ! Type
  Construction,                           ! Line Item Type
  189.1-2009 Nonres 6B Ext Slab Unheated - 8in Slab without Carpet, ! Item Name
  ,                                       ! Object End Use Key
  ,                                       ! Quantity {dimensionless}
  45.52,                                  ! Material Cost {$}
  CostPerArea;                            ! Material Cost Units

