
OS:Version,
  {04ba30b1-fbc6-45e3-a9e7-b014623836c9}, ! Handle
  0.9.3;                                  ! Version Identifier

OS:Construction,
  {6e742811-0918-40c6-9c4b-ec4188d6f319}, ! Handle
  189.1-2009 Nonres 6B Ext Slab Unheated - 8in Slab without Carpet, ! Name
  ,                                       ! Surface Rendering Name
  {7156b563-10be-45a3-a0b8-1b393e13be81}; ! Layer 1

OS:Material,
  {7156b563-10be-45a3-a0b8-1b393e13be81}, ! Handle
  MAT-CC05 8 HW CONCRETE,                 ! Name
  Rough,                                  ! Roughness
  0.20321,                                ! Thickness {m}
  1.311,                                  ! Conductivity {W/m-K}
  2240,                                   ! Density {kg/m3}
  836.8,                                  ! Specific Heat {J/kg-K}
  0.9,                                    ! Thermal Absorptance
  0.7,                                    ! Solar Absorptance
  0.7;                                    ! Visible Absorptance

OS:ComponentCost:LineItem,
  {a9e03f26-c6f6-49ab-949f-6f6127cbe5bd}, ! Handle
  189.1-2009 Nonres 6B Ext Slab Unheated - 8in Slab without Carpet, ! Name
  ,                                       ! Type
  Construction,                           ! Line Item Type
  189.1-2009 Nonres 6B Ext Slab Unheated - 8in Slab without Carpet, ! Item Name
  ,                                       ! Object End Use Key
  ,                                       ! Quantity {dimensionless}
  45.52,                                  ! Material Cost {$}
  CostPerArea;                            ! Material Cost Units

OS:ComponentData,
  {9ce338fa-39f5-4b83-a28b-5d49dc306832}, ! Handle
  Component Data 1,                       ! Name
  {433b8d58-7dd7-4d86-b977-a6a762c98b06}, ! UUID
  {de24afbc-b344-4998-9b2a-4d4afb8d2669}, ! Version UUID
  1363980948,                             ! Creation Timestamp
  1363980948,                             ! Version Timestamp
  {6e742811-0918-40c6-9c4b-ec4188d6f319}, ! Name of Object 1
  {7156b563-10be-45a3-a0b8-1b393e13be81}, ! Name of Object 2
  {a9e03f26-c6f6-49ab-949f-6f6127cbe5bd}; ! Name of Object 3

