
OS:Version,
  {8485bfc8-05ea-4ccd-bdc1-50e319b352d7}, ! Handle
  0.9.3;                                  ! Version Identifier

OS:Material,
  {d5852584-b0b1-4812-9f22-4e941fd3cc2f}, ! Handle
  AtticFloor Insulation [49],             ! Name
  MediumRough,                            ! Roughness
  0.205862,                               ! Thickness {m}
  0.049,                                  ! Conductivity {W/m-K}
  265,                                    ! Density {kg/m3}
  836.8,                                  ! Specific Heat {J/kg-K}
  0.9,                                    ! Thermal Absorptance
  0.7,                                    ! Solar Absorptance
  0.7;                                    ! Visible Absorptance

OS:Material,
  {ebeb93f3-4ad8-49fd-bbc2-f6d566f5cf5d}, ! Handle
  1/2IN Gypsum Top,                       ! Name
  Smooth,                                 ! Roughness
  0.01271,                                ! Thickness {m}
  0.16,                                   ! Conductivity {W/m-K}
  784.9,                                  ! Density {kg/m3}
  830,                                    ! Specific Heat {J/kg-K}
  0.9,                                    ! Thermal Absorptance
  0.92,                                   ! Solar Absorptance
  0.92;                                   ! Visible Absorptance

OS:Construction,
  {f1ad8fff-b71d-48c3-9789-977c3cb6aec0}, ! Handle
  Title 24-2008 Nonres 9 Attic Floor,     ! Name
  ,                                       ! Surface Rendering Name
  {ebeb93f3-4ad8-49fd-bbc2-f6d566f5cf5d}, ! Layer 1
  {d5852584-b0b1-4812-9f22-4e941fd3cc2f}, ! Layer 2
  {2c365abc-c2a4-44e6-bd16-abfffac9a626}; ! Layer 3

OS:Material,
  {2c365abc-c2a4-44e6-bd16-abfffac9a626}, ! Handle
  1/2IN Gypsum Bottom,                    ! Name
  Smooth,                                 ! Roughness
  0.01271,                                ! Thickness {m}
  0.16,                                   ! Conductivity {W/m-K}
  784.9,                                  ! Density {kg/m3}
  830,                                    ! Specific Heat {J/kg-K}
  0.9,                                    ! Thermal Absorptance
  0.92,                                   ! Solar Absorptance
  0.92;                                   ! Visible Absorptance

OS:ComponentCost:LineItem,
  {a5450748-095c-45e5-9c8e-94d579aedd99}, ! Handle
  Title 24-2008 Nonres 9 Attic Floor,     ! Name
  ,                                       ! Type
  Construction,                           ! Line Item Type
  Title 24-2008 Nonres 9 Attic Floor,     ! Item Name
  ,                                       ! Object End Use Key
  ,                                       ! Quantity {dimensionless}
  33.117,                                 ! Material Cost {$}
  CostPerArea;                            ! Material Cost Units

