
OS:Version,
  {ef1e5471-b8c0-4ffe-bbf8-d48122271681}, !- Handle
  1.1.0;                                  !- Version Identifier

OS:Construction,
  {6329491c-8a0b-4a61-861a-dd6e1ff998d0}, !- Handle
  Sgl Elec Abs Bleached 6mm,              !- Name
  ,                                       !- Surface Rendering Name
  {62458434-eeac-4680-bec6-106b8fc0c1f9}; !- Layer 1

OS:WindowMaterial:Glazing,
  {62458434-eeac-4680-bec6-106b8fc0c1f9}, !- Handle
  ECABS-1 BLEACHED 6MM,                   !- Name
  SpectralAverage,                        !- Optical Data Type
  ,                                       !- Window Glass Spectral Data Set Name
  0.006,                                  !- Thickness {m}
  0.814,                                  !- Solar Transmittance at Normal Incidence
  0.086,                                  !- Front Side Solar Reflectance at Normal Incidence
  0.086,                                  !- Back Side Solar Reflectance at Normal Incidence
  0.847,                                  !- Visible Transmittance at Normal Incidence
  0.099,                                  !- Front Side Visible Reflectance at Normal Incidence
  0.099,                                  !- Back Side Visible Reflectance at Normal Incidence
  0,                                      !- Infrared Transmittance at Normal Incidence
  0.84,                                   !- Front Side Infrared Hemispherical Emissivity
  0.84,                                   !- Back Side Infrared Hemispherical Emissivity
  0.9;                                    !- Conductivity {W/m-K}

OS:ComponentData,
  {869f024b-bc3e-4496-aa00-853977df575d}, !- Handle
  Component Data 1,                       !- Name
  {59b25b86-27c8-4bfe-a8bc-97121fbbc2dc}, !- UUID
  {936dd98a-ef6e-4b74-b0e3-eda5974bcb1a}, !- Version UUID
  1384380200,                             !- Creation Timestamp
  1384380200,                             !- Version Timestamp
  {6329491c-8a0b-4a61-861a-dd6e1ff998d0}, !- Name of Object 1
  {62458434-eeac-4680-bec6-106b8fc0c1f9}; !- Name of Object 2

