
OS:Version,
  {bfefb020-7004-4c3a-91b3-1fe95057120c}, !- Handle
  1.1.0;                                  !- Version Identifier

OS:Construction,
  {0f0174ac-8b6f-4ca6-a5aa-8075f48a12ea}, !- Handle
  Sgl Elec Abs Bleached 6mm,              !- Name
  ,                                       !- Surface Rendering Name
  {fd46f87e-58f5-4649-9d47-071cfad330d8}; !- Layer 1

OS:WindowMaterial:Glazing,
  {fd46f87e-58f5-4649-9d47-071cfad330d8}, !- Handle
  ECABS-1 BLEACHED 6MM,                   !- Name
  SpectralAverage,                        !- Optical Data Type
  ,                                       !- Window Glass Spectral Data Set Name
  0.006,                                  !- Thickness {m}
  0.814,                                  !- Solar Transmittance at Normal Incidence
  0.086,                                  !- Front Side Solar Reflectance at Normal Incidence
  0.086,                                  !- Back Side Solar Reflectance at Normal Incidence
  0.847,                                  !- Visible Transmittance at Normal Incidence
  0.099,                                  !- Front Side Visible Reflectance at Normal Incidence
  0.099,                                  !- Back Side Visible Reflectance at Normal Incidence
  0,                                      !- Infrared Transmittance at Normal Incidence
  0.84,                                   !- Front Side Infrared Hemispherical Emissivity
  0.84,                                   !- Back Side Infrared Hemispherical Emissivity
  0.9;                                    !- Conductivity {W/m-K}

