
OS:Version,
  {1aa251fb-4d0a-4270-acc2-41ea5cf6dc9e}, !- Handle
  1.1.0;                                  !- Version Identifier

OS:Construction,
  {051a3a8d-275a-4ad6-8704-86bf64c90185}, !- Handle
  Trp LoE Film (33) Bronze 6mm/6mm Air,   !- Name
  ,                                       !- Surface Rendering Name
  {b8c67ae5-7e1b-499e-aa73-16486859704a}, !- Layer 1
  {27a4984a-4feb-4c73-aafe-ff7f617f1d54}, !- Layer 2
  {6d824136-1246-40ad-8d97-6100c4af4cca}, !- Layer 3
  {27a4984a-4feb-4c73-aafe-ff7f617f1d54}, !- Layer 4
  {390e66ef-b9f4-4ab3-8af4-e9ac11cf20e6}; !- Layer 5

OS:WindowMaterial:Glazing,
  {b8c67ae5-7e1b-499e-aa73-16486859704a}, !- Handle
  BRONZE 6MM,                             !- Name
  SpectralAverage,                        !- Optical Data Type
  ,                                       !- Window Glass Spectral Data Set Name
  0.006,                                  !- Thickness {m}
  0.482,                                  !- Solar Transmittance at Normal Incidence
  0.054,                                  !- Front Side Solar Reflectance at Normal Incidence
  0.054,                                  !- Back Side Solar Reflectance at Normal Incidence
  0.534,                                  !- Visible Transmittance at Normal Incidence
  0.057,                                  !- Front Side Visible Reflectance at Normal Incidence
  0.057,                                  !- Back Side Visible Reflectance at Normal Incidence
  0,                                      !- Infrared Transmittance at Normal Incidence
  0.84,                                   !- Front Side Infrared Hemispherical Emissivity
  0.84,                                   !- Back Side Infrared Hemispherical Emissivity
  0.9;                                    !- Conductivity {W/m-K}

OS:WindowMaterial:Gas,
  {27a4984a-4feb-4c73-aafe-ff7f617f1d54}, !- Handle
  AIR 6MM,                                !- Name
  Air,                                    !- Gas Type
  0.0063;                                 !- Thickness {m}

OS:WindowMaterial:Glazing,
  {6d824136-1246-40ad-8d97-6100c4af4cca}, !- Handle
  COATED POLY-33,                         !- Name
  SpectralAverage,                        !- Optical Data Type
  ,                                       !- Window Glass Spectral Data Set Name
  0.00051,                                !- Thickness {m}
  0.178,                                  !- Solar Transmittance at Normal Incidence
  0.739,                                  !- Front Side Solar Reflectance at Normal Incidence
  0.738,                                  !- Back Side Solar Reflectance at Normal Incidence
  0.33,                                   !- Visible Transmittance at Normal Incidence
  0.566,                                  !- Front Side Visible Reflectance at Normal Incidence
  0.591,                                  !- Back Side Visible Reflectance at Normal Incidence
  0,                                      !- Infrared Transmittance at Normal Incidence
  0.035,                                  !- Front Side Infrared Hemispherical Emissivity
  0.72,                                   !- Back Side Infrared Hemispherical Emissivity
  0.14;                                   !- Conductivity {W/m-K}

OS:WindowMaterial:Glazing,
  {390e66ef-b9f4-4ab3-8af4-e9ac11cf20e6}, !- Handle
  CLEAR 6MM,                              !- Name
  SpectralAverage,                        !- Optical Data Type
  ,                                       !- Window Glass Spectral Data Set Name
  0.006,                                  !- Thickness {m}
  0.775,                                  !- Solar Transmittance at Normal Incidence
  0.071,                                  !- Front Side Solar Reflectance at Normal Incidence
  0.071,                                  !- Back Side Solar Reflectance at Normal Incidence
  0.881,                                  !- Visible Transmittance at Normal Incidence
  0.08,                                   !- Front Side Visible Reflectance at Normal Incidence
  0.08,                                   !- Back Side Visible Reflectance at Normal Incidence
  0,                                      !- Infrared Transmittance at Normal Incidence
  0.84,                                   !- Front Side Infrared Hemispherical Emissivity
  0.84,                                   !- Back Side Infrared Hemispherical Emissivity
  0.9;                                    !- Conductivity {W/m-K}

