
OS:Version,
  {01a2bf59-676f-4d92-95c0-3388e84dfa8f}, ! Handle
  0.9.3;                                  ! Version Identifier

OS:Construction,
  {2217daec-48e7-4d25-a6a6-604e686ff126}, ! Handle
  AEDG-SmOffice 3A Ext Slab Unheated - 8in Slab without Carpet, ! Name
  ,                                       ! Surface Rendering Name
  {50d07cca-9407-4244-a221-717747ffde79}; ! Layer 1

OS:Material,
  {50d07cca-9407-4244-a221-717747ffde79}, ! Handle
  MAT-CC05 8 HW CONCRETE,                 ! Name
  Rough,                                  ! Roughness
  0.20321,                                ! Thickness {m}
  1.311,                                  ! Conductivity {W/m-K}
  2240,                                   ! Density {kg/m3}
  836.8,                                  ! Specific Heat {J/kg-K}
  0.9,                                    ! Thermal Absorptance
  0.7,                                    ! Solar Absorptance
  0.7;                                    ! Visible Absorptance

OS:ComponentCost:LineItem,
  {fef121bd-ad4e-4aac-9518-a68053d3b70f}, ! Handle
  AEDG-SmOffice 3A Ext Slab Unheated - 8in Slab without Carpet, ! Name
  ,                                       ! Type
  Construction,                           ! Line Item Type
  AEDG-SmOffice 3A Ext Slab Unheated - 8in Slab without Carpet, ! Item Name
  ,                                       ! Object End Use Key
  ,                                       ! Quantity {dimensionless}
  45.52,                                  ! Material Cost {$}
  CostPerArea;                            ! Material Cost Units

