
OS:Version,
  {0c85c78e-4094-4ef2-8753-4ff50c24cbb6}, ! Handle
  0.9.3;                                  ! Version Identifier

OS:Construction,
  {0ec1551c-cbf0-4efe-ba49-f3696b71f816}, ! Handle
  AEDG-SmOffice 3A Ext Slab Unheated - 8in Slab without Carpet, ! Name
  ,                                       ! Surface Rendering Name
  {8177a7fc-0fcb-4058-9b4a-4b5ffb12e74c}; ! Layer 1

OS:Material,
  {8177a7fc-0fcb-4058-9b4a-4b5ffb12e74c}, ! Handle
  MAT-CC05 8 HW CONCRETE,                 ! Name
  Rough,                                  ! Roughness
  0.20321,                                ! Thickness {m}
  1.311,                                  ! Conductivity {W/m-K}
  2240,                                   ! Density {kg/m3}
  836.8,                                  ! Specific Heat {J/kg-K}
  0.9,                                    ! Thermal Absorptance
  0.7,                                    ! Solar Absorptance
  0.7;                                    ! Visible Absorptance

OS:ComponentCost:LineItem,
  {bd1c4733-3ef1-4754-9ce1-6979c445ed8c}, ! Handle
  AEDG-SmOffice 3A Ext Slab Unheated - 8in Slab without Carpet, ! Name
  ,                                       ! Type
  Construction,                           ! Line Item Type
  AEDG-SmOffice 3A Ext Slab Unheated - 8in Slab without Carpet, ! Item Name
  ,                                       ! Object End Use Key
  ,                                       ! Quantity {dimensionless}
  45.52,                                  ! Material Cost {$}
  CostPerArea;                            ! Material Cost Units

OS:ComponentData,
  {fe561c0c-9464-46bc-9f90-0ce39e52f5dd}, ! Handle
  Component Data 1,                       ! Name
  {0e15eeb8-66c4-4b42-a5cd-3f9a663418a2}, ! UUID
  {d17b74e0-d6f8-4e90-b16d-d886dfc2054c}, ! Version UUID
  1363981947,                             ! Creation Timestamp
  1363981947,                             ! Version Timestamp
  {0ec1551c-cbf0-4efe-ba49-f3696b71f816}, ! Name of Object 1
  {8177a7fc-0fcb-4058-9b4a-4b5ffb12e74c}, ! Name of Object 2
  {bd1c4733-3ef1-4754-9ce1-6979c445ed8c}; ! Name of Object 3

