
OS:Version,
  {b54ed61f-48e5-4fd0-9f85-3d5a44b9a83f}, ! Handle
  0.9.3;                                  ! Version Identifier

OS:Construction,
  {63df3440-3506-46ed-8d81-71deb88dd9ad}, ! Handle
  90.1-1999 Nonres B19 Window Fixed,      ! Name
  ,                                       ! Surface Rendering Name
  {f4955d75-baac-4fd1-b0b9-d22ced782278}; ! Layer 1

OS:WindowMaterial:Glazing,
  {f4955d75-baac-4fd1-b0b9-d22ced782278}, ! Handle
  Theoretical Glass [37],                 ! Name
  SpectralAverage,                        ! Optical Data Type
  ,                                       ! Window Glass Spectral Data Set Name
  0.003,                                  ! Thickness {m}
  0.48413,                                ! Solar Transmittance at Normal Incidence
  0.46587,                                ! Front Side Solar Reflectance at Normal Incidence
  0.46587,                                ! Back Side Solar Reflectance at Normal Incidence
  0.529698,                               ! Visible Transmittance at Normal Incidence
  0.420302,                               ! Front Side Visible Reflectance at Normal Incidence
  0.420302,                               ! Back Side Visible Reflectance at Normal Incidence
  0,                                      ! Infrared Transmittance at Normal Incidence
  0.9,                                    ! Front Side Infrared Hemispherical Emissivity
  0.9,                                    ! Back Side Infrared Hemispherical Emissivity
  0.0134755;                              ! Conductivity {W/m-K}

OS:ComponentCost:LineItem,
  {d9d963d2-6edf-4a0f-b1cc-1f81dd22735c}, ! Handle
  90.1-1999 Nonres B19 Window Fixed,      ! Name
  ,                                       ! Type
  Construction,                           ! Line Item Type
  90.1-1999 Nonres B19 Window Fixed,      ! Item Name
  ,                                       ! Object End Use Key
  ,                                       ! Quantity {dimensionless}
  444.232,                                ! Material Cost {$}
  CostPerArea;                            ! Material Cost Units

