
OS:Version,
  {d45e56c6-7c60-4058-bd36-75d03f7bf38e}, !- Handle
  1.1.0;                                  !- Version Identifier

OS:Construction,
  {a4d69094-715b-427b-9905-86ef6a467b0f}, !- Handle
  Dbl LoE Spec Sel Clr 3mm/6mm/6mm Air,   !- Name
  ,                                       !- Surface Rendering Name
  {79f23cca-1b15-4c1a-9160-5aba446a43cc}, !- Layer 1
  {46a30138-e3ed-4765-9ce0-544dd9e43fb2}, !- Layer 2
  {f7101ba4-b422-433f-b8a6-ccbc7ab29258}; !- Layer 3

OS:WindowMaterial:Glazing,
  {79f23cca-1b15-4c1a-9160-5aba446a43cc}, !- Handle
  LoE SPEC SEL CLEAR 3MM,                 !- Name
  SpectralAverage,                        !- Optical Data Type
  ,                                       !- Window Glass Spectral Data Set Name
  0.003,                                  !- Thickness {m}
  0.45,                                   !- Solar Transmittance at Normal Incidence
  0.34,                                   !- Front Side Solar Reflectance at Normal Incidence
  0.37,                                   !- Back Side Solar Reflectance at Normal Incidence
  0.78,                                   !- Visible Transmittance at Normal Incidence
  0.07,                                   !- Front Side Visible Reflectance at Normal Incidence
  0.06,                                   !- Back Side Visible Reflectance at Normal Incidence
  0,                                      !- Infrared Transmittance at Normal Incidence
  0.84,                                   !- Front Side Infrared Hemispherical Emissivity
  0.03,                                   !- Back Side Infrared Hemispherical Emissivity
  0.9;                                    !- Conductivity {W/m-K}

OS:WindowMaterial:Gas,
  {46a30138-e3ed-4765-9ce0-544dd9e43fb2}, !- Handle
  AIR 6MM,                                !- Name
  Air,                                    !- Gas Type
  0.0063;                                 !- Thickness {m}

OS:WindowMaterial:Glazing,
  {f7101ba4-b422-433f-b8a6-ccbc7ab29258}, !- Handle
  CLEAR 6MM,                              !- Name
  SpectralAverage,                        !- Optical Data Type
  ,                                       !- Window Glass Spectral Data Set Name
  0.006,                                  !- Thickness {m}
  0.775,                                  !- Solar Transmittance at Normal Incidence
  0.071,                                  !- Front Side Solar Reflectance at Normal Incidence
  0.071,                                  !- Back Side Solar Reflectance at Normal Incidence
  0.881,                                  !- Visible Transmittance at Normal Incidence
  0.08,                                   !- Front Side Visible Reflectance at Normal Incidence
  0.08,                                   !- Back Side Visible Reflectance at Normal Incidence
  0,                                      !- Infrared Transmittance at Normal Incidence
  0.84,                                   !- Front Side Infrared Hemispherical Emissivity
  0.84,                                   !- Back Side Infrared Hemispherical Emissivity
  0.9;                                    !- Conductivity {W/m-K}

