
OS:Version,
  {6a2bbfbd-653c-4e91-814e-92e92c4f1a7b}, ! Handle
  0.9.3;                                  ! Version Identifier

OS:Material,
  {eb8d5087-ba88-41d6-95b9-81605de8422c}, ! Handle
  1/2IN Gypsum Bottom,                    ! Name
  Smooth,                                 ! Roughness
  0.01271,                                ! Thickness {m}
  0.16,                                   ! Conductivity {W/m-K}
  784.9,                                  ! Density {kg/m3}
  830,                                    ! Specific Heat {J/kg-K}
  0.9,                                    ! Thermal Absorptance
  0.92,                                   ! Solar Absorptance
  0.92;                                   ! Visible Absorptance

OS:Material,
  {06cecf33-2776-475c-8618-3fb1d52269a4}, ! Handle
  1/2IN Gypsum Top,                       ! Name
  Smooth,                                 ! Roughness
  0.01271,                                ! Thickness {m}
  0.16,                                   ! Conductivity {W/m-K}
  784.9,                                  ! Density {kg/m3}
  830,                                    ! Specific Heat {J/kg-K}
  0.9,                                    ! Thermal Absorptance
  0.92,                                   ! Solar Absorptance
  0.92;                                   ! Visible Absorptance

OS:Material,
  {7f1a438b-cc47-46ce-8930-740646452ce3}, ! Handle
  AtticFloor Insulation [1],              ! Name
  MediumRough,                            ! Roughness
  0.303719,                               ! Thickness {m}
  0.049,                                  ! Conductivity {W/m-K}
  265,                                    ! Density {kg/m3}
  836.8,                                  ! Specific Heat {J/kg-K}
  0.9,                                    ! Thermal Absorptance
  0.7,                                    ! Solar Absorptance
  0.7;                                    ! Visible Absorptance

OS:ComponentCost:LineItem,
  {a781da01-ebfe-4454-9a2c-388412b2fe60}, ! Handle
  90.1-2007 Res 6B Attic Floor,           ! Name
  ,                                       ! Type
  Construction,                           ! Line Item Type
  90.1-2007 Res 6B Attic Floor,           ! Item Name
  ,                                       ! Object End Use Key
  ,                                       ! Quantity {dimensionless}
  35.009,                                 ! Material Cost {$}
  CostPerArea;                            ! Material Cost Units

OS:Construction,
  {2ee31a2c-8878-4910-a751-21484e35cd16}, ! Handle
  90.1-2007 Res 6B Attic Floor,           ! Name
  ,                                       ! Surface Rendering Name
  {06cecf33-2776-475c-8618-3fb1d52269a4}, ! Layer 1
  {7f1a438b-cc47-46ce-8930-740646452ce3}, ! Layer 2
  {eb8d5087-ba88-41d6-95b9-81605de8422c}; ! Layer 3

