
OS:Version,
  {9e61ea27-0341-4d4e-a4ba-38f96847a4e5}, ! Handle
  0.9.3;                                  ! Version Identifier

OS:Construction,
  {0ba68ca7-14b3-49e8-bc6c-1cff5329a483}, ! Handle
  90.1-2007 Res 6B Attic Floor,           ! Name
  ,                                       ! Surface Rendering Name
  {32529caa-9d6d-4cdb-ae86-2454f81801eb}, ! Layer 1
  {0c344748-95a1-4683-87da-1a12a6fa2086}, ! Layer 2
  {9f7503a0-423a-44bb-a257-0088e47ad071}; ! Layer 3

OS:Material,
  {32529caa-9d6d-4cdb-ae86-2454f81801eb}, ! Handle
  1/2IN Gypsum Top,                       ! Name
  Smooth,                                 ! Roughness
  0.01271,                                ! Thickness {m}
  0.16,                                   ! Conductivity {W/m-K}
  784.9,                                  ! Density {kg/m3}
  830,                                    ! Specific Heat {J/kg-K}
  0.9,                                    ! Thermal Absorptance
  0.92,                                   ! Solar Absorptance
  0.92;                                   ! Visible Absorptance

OS:Material,
  {0c344748-95a1-4683-87da-1a12a6fa2086}, ! Handle
  AtticFloor Insulation [1],              ! Name
  MediumRough,                            ! Roughness
  0.303719,                               ! Thickness {m}
  0.049,                                  ! Conductivity {W/m-K}
  265,                                    ! Density {kg/m3}
  836.8,                                  ! Specific Heat {J/kg-K}
  0.9,                                    ! Thermal Absorptance
  0.7,                                    ! Solar Absorptance
  0.7;                                    ! Visible Absorptance

OS:Material,
  {9f7503a0-423a-44bb-a257-0088e47ad071}, ! Handle
  1/2IN Gypsum Bottom,                    ! Name
  Smooth,                                 ! Roughness
  0.01271,                                ! Thickness {m}
  0.16,                                   ! Conductivity {W/m-K}
  784.9,                                  ! Density {kg/m3}
  830,                                    ! Specific Heat {J/kg-K}
  0.9,                                    ! Thermal Absorptance
  0.92,                                   ! Solar Absorptance
  0.92;                                   ! Visible Absorptance

OS:ComponentCost:LineItem,
  {f46da5a3-e4b0-447b-9cec-02688940f3d6}, ! Handle
  90.1-2007 Res 6B Attic Floor,           ! Name
  ,                                       ! Type
  Construction,                           ! Line Item Type
  90.1-2007 Res 6B Attic Floor,           ! Item Name
  ,                                       ! Object End Use Key
  ,                                       ! Quantity {dimensionless}
  35.009,                                 ! Material Cost {$}
  CostPerArea;                            ! Material Cost Units

OS:ComponentData,
  {94b4b5bd-6c19-48f5-a4d8-0c0c5ba82082}, ! Handle
  Component Data 1,                       ! Name
  {500105d3-4966-447c-89ac-f6344212c6d4}, ! UUID
  {b225f8b3-7018-4bed-9235-aa2ad959b610}, ! Version UUID
  1363981863,                             ! Creation Timestamp
  1363981863,                             ! Version Timestamp
  {0ba68ca7-14b3-49e8-bc6c-1cff5329a483}, ! Name of Object 1
  {32529caa-9d6d-4cdb-ae86-2454f81801eb}, ! Name of Object 2
  {0c344748-95a1-4683-87da-1a12a6fa2086}, ! Name of Object 3
  {9f7503a0-423a-44bb-a257-0088e47ad071}, ! Name of Object 4
  {f46da5a3-e4b0-447b-9cec-02688940f3d6}; ! Name of Object 5

