
OS:Version,
  {b774a04a-cb33-4976-9f0e-e40be7ca765d}, ! Handle
  0.9.3;                                  ! Version Identifier

OS:Material,
  {3cc58a71-883c-427a-8eca-debc6b4d6c87}, ! Handle
  Roof Insulation [1],                    ! Name
  MediumRough,                            ! Roughness
  0.123533,                               ! Thickness {m}
  0.049,                                  ! Conductivity {W/m-K}
  265,                                    ! Density {kg/m3}
  836.8,                                  ! Specific Heat {J/kg-K}
  0.9,                                    ! Thermal Absorptance
  0.7,                                    ! Solar Absorptance
  0.7;                                    ! Visible Absorptance

OS:Material,
  {81e00616-45a6-47cc-8a6c-10a14ab2891c}, ! Handle
  Metal Roofing,                          ! Name
  MediumSmooth,                           ! Roughness
  0.001524,                               ! Thickness {m}
  45.006,                                 ! Conductivity {W/m-K}
  7680,                                   ! Density {kg/m3}
  418.4,                                  ! Specific Heat {J/kg-K}
  0.9,                                    ! Thermal Absorptance
  0.7,                                    ! Solar Absorptance
  0.3;                                    ! Visible Absorptance

OS:Construction,
  {347de736-72d7-493d-aa80-bafe6721eae0}, ! Handle
  90.1-1999 Res B3 Roof Metal Building,   ! Name
  ,                                       ! Surface Rendering Name
  {81e00616-45a6-47cc-8a6c-10a14ab2891c}, ! Layer 1
  {3cc58a71-883c-427a-8eca-debc6b4d6c87}; ! Layer 2

OS:ComponentCost:LineItem,
  {8dc2ed00-f36d-4d86-b644-40d6d5a9738c}, ! Handle
  90.1-1999 Res B3 Roof Metal Building,   ! Name
  ,                                       ! Type
  Construction,                           ! Line Item Type
  90.1-1999 Res B3 Roof Metal Building,   ! Item Name
  ,                                       ! Object End Use Key
  ,                                       ! Quantity {dimensionless}
  38.206,                                 ! Material Cost {$}
  CostPerArea;                            ! Material Cost Units

