
OS:Version,
  {0159cf4c-b2d9-473a-9a2d-fc7ffe17dfdf}, ! Handle
  0.9.3;                                  ! Version Identifier

OS:WindowMaterial:Glazing,
  {98128cd5-87e6-4a5c-b8e6-72a79853b493}, ! Handle
  Theoretical Glass [127],                ! Name
  SpectralAverage,                        ! Optical Data Type
  ,                                       ! Window Glass Spectral Data Set Name
  0.003,                                  ! Thickness {m}
  0.31664,                                ! Solar Transmittance at Normal Incidence
  0.63336,                                ! Front Side Solar Reflectance at Normal Incidence
  0.63336,                                ! Back Side Solar Reflectance at Normal Incidence
  0.330719,                               ! Visible Transmittance at Normal Incidence
  0.619281,                               ! Front Side Visible Reflectance at Normal Incidence
  0.619281,                               ! Back Side Visible Reflectance at Normal Incidence
  0,                                      ! Infrared Transmittance at Normal Incidence
  0.999,                                  ! Front Side Infrared Hemispherical Emissivity
  0.999,                                  ! Back Side Infrared Hemispherical Emissivity
  3.36874;                                ! Conductivity {W/m-K}

OS:ComponentCost:LineItem,
  {d065c67a-44a4-4da7-ae62-db2b41176e79}, ! Handle
  90.1-2004 Nonres 1A Window Fixed,       ! Name
  ,                                       ! Type
  Construction,                           ! Line Item Type
  90.1-2004 Nonres 1A Window Fixed,       ! Item Name
  ,                                       ! Object End Use Key
  ,                                       ! Quantity {dimensionless}
  473.607,                                ! Material Cost {$}
  CostPerArea;                            ! Material Cost Units

OS:Construction,
  {a59543c6-511a-4bc9-88d3-9b3aa4c32e74}, ! Handle
  90.1-2004 Nonres 1A Window Fixed,       ! Name
  ,                                       ! Surface Rendering Name
  {98128cd5-87e6-4a5c-b8e6-72a79853b493}; ! Layer 1

