
OS:Version,
  {436afc69-f4b6-4c57-b56c-720d8561ca55}, ! Handle
  0.9.3;                                  ! Version Identifier

OS:Construction,
  {c41cc075-b335-4b38-a6b4-1c01f2d6ff97}, ! Handle
  90.1-2004 Nonres 3A Int Wall,           ! Name
  ,                                       ! Surface Rendering Name
  {dfaa4ad6-2474-472d-958f-a2a0925f1409}, ! Layer 1
  {dfaa4ad6-2474-472d-958f-a2a0925f1409}; ! Layer 2

OS:Material,
  {dfaa4ad6-2474-472d-958f-a2a0925f1409}, ! Handle
  GP01 1/2 GYPSUM,                        ! Name
  Smooth,                                 ! Roughness
  0.01271,                                ! Thickness {m}
  0.16,                                   ! Conductivity {W/m-K}
  800,                                    ! Density {kg/m3}
  1090,                                   ! Specific Heat {J/kg-K}
  0.9,                                    ! Thermal Absorptance
  0.7,                                    ! Solar Absorptance
  0.5;                                    ! Visible Absorptance

OS:ComponentCost:LineItem,
  {94a4c5a0-e157-4d27-b1e7-f663e7a63f4a}, ! Handle
  90.1-2004 Nonres 3A Int Wall,           ! Name
  ,                                       ! Type
  Construction,                           ! Line Item Type
  90.1-2004 Nonres 3A Int Wall,           ! Item Name
  ,                                       ! Object End Use Key
  ,                                       ! Quantity {dimensionless}
  0,                                      ! Material Cost {$}
  CostPerArea;                            ! Material Cost Units

OS:ComponentData,
  {97355b43-6310-45b2-81e5-929fc9527e8a}, ! Handle
  Component Data 1,                       ! Name
  {eee6d6b3-be82-462d-966e-9a594e1d03c2}, ! UUID
  {816de755-5679-429f-865c-4adcbab311b0}, ! Version UUID
  1363981644,                             ! Creation Timestamp
  1363981644,                             ! Version Timestamp
  {c41cc075-b335-4b38-a6b4-1c01f2d6ff97}, ! Name of Object 1
  {dfaa4ad6-2474-472d-958f-a2a0925f1409}, ! Name of Object 2
  {94a4c5a0-e157-4d27-b1e7-f663e7a63f4a}; ! Name of Object 3

