
OS:Version,
  {06019682-cb31-404b-8b34-1b2f83179851}, ! Handle
  0.9.3;                                  ! Version Identifier

OS:Construction,
  {6459255d-d52b-486c-a0c2-5cf4cc54301e}, ! Handle
  90.1-2004 Nonres 6B Ext Wall Steel-Framed, ! Name
  ,                                       ! Surface Rendering Name
  {c8955a7f-7221-4fa0-ab30-ee03066c554c}, ! Layer 1
  {d1d5aabc-fffe-4c83-9e27-031504b641ce}, ! Layer 2
  {8a9963b0-d34d-4c0c-b42c-65eb09781dc1}; ! Layer 3

OS:Material:NoMass,
  {c8955a7f-7221-4fa0-ab30-ee03066c554c}, ! Handle
  MAT-SHEATH,                             ! Name
  Rough,                                  ! Roughness
  0.36256,                                ! Thermal Resistance {m2-K/W}
  0.9,                                    ! Thermal Absorptance
  0.7,                                    ! Solar Absorptance
  0.7;                                    ! Visible Absorptance

OS:Material,
  {d1d5aabc-fffe-4c83-9e27-031504b641ce}, ! Handle
  Wall Insulation [6],                    ! Name
  MediumRough,                            ! Roughness
  0.0678449,                              ! Thickness {m}
  0.045,                                  ! Conductivity {W/m-K}
  265,                                    ! Density {kg/m3}
  836.8,                                  ! Specific Heat {J/kg-K}
  0.9,                                    ! Thermal Absorptance
  0.7,                                    ! Solar Absorptance
  0.7;                                    ! Visible Absorptance

OS:Material,
  {8a9963b0-d34d-4c0c-b42c-65eb09781dc1}, ! Handle
  1/2IN Gypsum,                           ! Name
  Smooth,                                 ! Roughness
  0.01271,                                ! Thickness {m}
  0.16,                                   ! Conductivity {W/m-K}
  784.9,                                  ! Density {kg/m3}
  830,                                    ! Specific Heat {J/kg-K}
  0.9,                                    ! Thermal Absorptance
  0.92,                                   ! Solar Absorptance
  0.92;                                   ! Visible Absorptance

OS:ComponentCost:LineItem,
  {d3589964-5c9d-447e-aca2-af9985ed67d2}, ! Handle
  90.1-2004 Nonres 6B Ext Wall Steel-Framed, ! Name
  ,                                       ! Type
  Construction,                           ! Line Item Type
  90.1-2004 Nonres 6B Ext Wall Steel-Framed, ! Item Name
  ,                                       ! Object End Use Key
  ,                                       ! Quantity {dimensionless}
  91.749,                                 ! Material Cost {$}
  CostPerArea;                            ! Material Cost Units

OS:ComponentData,
  {c7cb0794-344b-40a5-806f-be9dbdf411c5}, ! Handle
  Component Data 1,                       ! Name
  {b5838493-74e9-44ca-acb5-ae864c494599}, ! UUID
  {f9875f1e-e501-4ca7-a5c1-95aad51c0f40}, ! Version UUID
  1363981685,                             ! Creation Timestamp
  1363981685,                             ! Version Timestamp
  {6459255d-d52b-486c-a0c2-5cf4cc54301e}, ! Name of Object 1
  {c8955a7f-7221-4fa0-ab30-ee03066c554c}, ! Name of Object 2
  {d1d5aabc-fffe-4c83-9e27-031504b641ce}, ! Name of Object 3
  {8a9963b0-d34d-4c0c-b42c-65eb09781dc1}, ! Name of Object 4
  {d3589964-5c9d-447e-aca2-af9985ed67d2}; ! Name of Object 5

