
OS:Version,
  {9a7a360f-5233-4b85-b8d4-e8a18644268c}, ! Handle
  0.9.3;                                  ! Version Identifier

OS:Material:NoMass,
  {00ddfdac-eabb-4d41-bcfa-27b670d6f970}, ! Handle
  MAT-SHEATH,                             ! Name
  Rough,                                  ! Roughness
  0.36256,                                ! Thermal Resistance {m2-K/W}
  0.9,                                    ! Thermal Absorptance
  0.7,                                    ! Solar Absorptance
  0.7;                                    ! Visible Absorptance

OS:ComponentCost:LineItem,
  {1e497bab-3546-4725-8284-efb973c868c4}, ! Handle
  90.1-2004 Nonres 6B Ext Wall Steel-Framed, ! Name
  ,                                       ! Type
  Construction,                           ! Line Item Type
  90.1-2004 Nonres 6B Ext Wall Steel-Framed, ! Item Name
  ,                                       ! Object End Use Key
  ,                                       ! Quantity {dimensionless}
  91.749,                                 ! Material Cost {$}
  CostPerArea;                            ! Material Cost Units

OS:Material,
  {406f6396-e138-4cd8-993c-47198afb6fac}, ! Handle
  1/2IN Gypsum,                           ! Name
  Smooth,                                 ! Roughness
  0.01271,                                ! Thickness {m}
  0.16,                                   ! Conductivity {W/m-K}
  784.9,                                  ! Density {kg/m3}
  830,                                    ! Specific Heat {J/kg-K}
  0.9,                                    ! Thermal Absorptance
  0.92,                                   ! Solar Absorptance
  0.92;                                   ! Visible Absorptance

OS:Construction,
  {3c37fa2a-0cfa-4c11-913a-545fe8fd205e}, ! Handle
  90.1-2004 Nonres 6B Ext Wall Steel-Framed, ! Name
  ,                                       ! Surface Rendering Name
  {00ddfdac-eabb-4d41-bcfa-27b670d6f970}, ! Layer 1
  {25f0c561-a17d-4d92-a3ba-6e888fc3d83f}, ! Layer 2
  {406f6396-e138-4cd8-993c-47198afb6fac}; ! Layer 3

OS:Material,
  {25f0c561-a17d-4d92-a3ba-6e888fc3d83f}, ! Handle
  Wall Insulation [6],                    ! Name
  MediumRough,                            ! Roughness
  0.0678449,                              ! Thickness {m}
  0.045,                                  ! Conductivity {W/m-K}
  265,                                    ! Density {kg/m3}
  836.8,                                  ! Specific Heat {J/kg-K}
  0.9,                                    ! Thermal Absorptance
  0.7,                                    ! Solar Absorptance
  0.7;                                    ! Visible Absorptance

