
! 
OS:Version,
  {9c37d538-db0d-4a47-9850-5bede7e76bd5}, !- Handle
  1.13.0;                                 !- Version Identifier


! {"nombreProductoCorto": "CLIMALIT PLUS con PLANITHERM XN F3 6(16 argon90%)44.2", "codigoEAN": "", "handle": "37dd9345-8fc8-482e-a872-d70f3418278b", "g": 0.64, "tV": 0.8, "u": 1.1, "nombreProducto": "CLIMALIT PLUS con PLANITHERM XN F3 6(16 argon90%)44.2\nU:1.1 W/m2K - g:0.64 - Tv: 0.80"}
OS:WindowMaterial:SimpleGlazingSystem,
  {37dd9345-8fc8-482e-a872-d70f3418278b}, !- Handle
  CLIMALIT PLUS con PLANITHERM XN F3 6(16 argon90%)44.2, !- Name
  1.1,                                    !- U-Factor {W/m2-K}
  0.64,                                    !- Solar Heat Gain Coefficient
  0.8;                                    !- Visible Transmittance     
  
  
OS:Construction,
  {e717ffd4-e35b-4bbf-9107-69146a2e1853}, !- Handle
  CLIMALIT PLUS con PLANITHERM XN F3 6(16 argon90%)44.2,                         !- Name
  ,                                       !- Surface Rendering Name
  {37dd9345-8fc8-482e-a872-d70f3418278b}; !- Layer 1  

