
OS:Version,
  {fdbcc58e-139b-4b6e-b949-ec1849fcf937}, ! Handle
  0.9.3;                                  ! Version Identifier

OS:Material,
  {0f2abc9b-63fc-403e-8d29-ce8cd167aaab}, ! Handle
  GP01 1/2 GYPSUM,                        ! Name
  Smooth,                                 ! Roughness
  0.01271,                                ! Thickness {m}
  0.16,                                   ! Conductivity {W/m-K}
  800,                                    ! Density {kg/m3}
  1090,                                   ! Specific Heat {J/kg-K}
  0.9,                                    ! Thermal Absorptance
  0.7,                                    ! Solar Absorptance
  0.5;                                    ! Visible Absorptance

OS:ComponentCost:LineItem,
  {d110f65f-5aac-4f0c-b1e6-4ed25f7f9357}, ! Handle
  90.1-2004 Res 3C Int Wall,              ! Name
  ,                                       ! Type
  Construction,                           ! Line Item Type
  90.1-2004 Res 3C Int Wall,              ! Item Name
  ,                                       ! Object End Use Key
  ,                                       ! Quantity {dimensionless}
  0,                                      ! Material Cost {$}
  CostPerArea;                            ! Material Cost Units

OS:Construction,
  {f7bdc245-1f86-45cf-be63-3b5c5da75122}, ! Handle
  90.1-2004 Res 3C Int Wall,              ! Name
  ,                                       ! Surface Rendering Name
  {0f2abc9b-63fc-403e-8d29-ce8cd167aaab}, ! Layer 1
  {0f2abc9b-63fc-403e-8d29-ce8cd167aaab}; ! Layer 2

OS:Material,
  {1a6c70fc-1948-4e26-b5e2-1edc2002453c}, ! Handle
  GP01 1/2 GYPSUM 1,                      ! Name
  Smooth,                                 ! Roughness
  0.01271,                                ! Thickness {m}
  0.16,                                   ! Conductivity {W/m-K}
  800,                                    ! Density {kg/m3}
  1090,                                   ! Specific Heat {J/kg-K}
  0.9,                                    ! Thermal Absorptance
  0.7,                                    ! Solar Absorptance
  0.5;                                    ! Visible Absorptance

