
OS:Version,
  {f975ed1f-da8e-4622-aef7-21e47e433248}, ! Handle
  0.9.3;                                  ! Version Identifier

OS:WindowMaterial:Glazing,
  {47f8908c-317c-478c-857e-ea9eea037647}, ! Handle
  Theoretical Glass [145],                ! Name
  SpectralAverage,                        ! Optical Data Type
  ,                                       ! Window Glass Spectral Data Set Name
  0.003,                                  ! Thickness {m}
  0.354957,                               ! Solar Transmittance at Normal Incidence
  0.595043,                               ! Front Side Solar Reflectance at Normal Incidence
  0.595043,                               ! Back Side Solar Reflectance at Normal Incidence
  0.457336,                               ! Visible Transmittance at Normal Incidence
  0.492664,                               ! Front Side Visible Reflectance at Normal Incidence
  0.492664,                               ! Back Side Visible Reflectance at Normal Incidence
  0,                                      ! Infrared Transmittance at Normal Incidence
  0.9,                                    ! Front Side Infrared Hemispherical Emissivity
  0.9,                                    ! Back Side Infrared Hemispherical Emissivity
  0.0134755;                              ! Conductivity {W/m-K}

OS:Construction,
  {fe69a7be-773f-449e-ba86-0f427d87a332}, ! Handle
  90.1-2004 Nonres 5B Window Fixed,       ! Name
  ,                                       ! Surface Rendering Name
  {47f8908c-317c-478c-857e-ea9eea037647}; ! Layer 1

OS:ComponentCost:LineItem,
  {99cc6f0d-54c4-409d-8be0-3c715e861abf}, ! Handle
  90.1-2004 Nonres 5B Window Fixed,       ! Name
  ,                                       ! Type
  Construction,                           ! Line Item Type
  90.1-2004 Nonres 5B Window Fixed,       ! Item Name
  ,                                       ! Object End Use Key
  ,                                       ! Quantity {dimensionless}
  544.731,                                ! Material Cost {$}
  CostPerArea;                            ! Material Cost Units

