
OS:Version,
  {7e095f2f-fbf6-4978-b3a5-8913842d38e1}, ! Handle
  0.9.3;                                  ! Version Identifier

OS:Material,
  {e3309dd9-fc0d-43bf-af70-1c16c9e16b27}, ! Handle
  1IN Wood Decking,                       ! Name
  MediumSmooth,                           ! Roughness
  0.0254,                                 ! Thickness {m}
  0.1211,                                 ! Conductivity {W/m-K}
  593,                                    ! Density {kg/m3}
  2510,                                   ! Specific Heat {J/kg-K}
  0.9,                                    ! Thermal Absorptance
  0.78,                                   ! Solar Absorptance
  0.78;                                   ! Visible Absorptance

OS:Material,
  {543034a9-05cd-4922-8375-1adfa5fe2b94}, ! Handle
  1/2IN Gypsum,                           ! Name
  Smooth,                                 ! Roughness
  0.01271,                                ! Thickness {m}
  0.16,                                   ! Conductivity {W/m-K}
  784.9,                                  ! Density {kg/m3}
  830,                                    ! Specific Heat {J/kg-K}
  0.9,                                    ! Thermal Absorptance
  0.92,                                   ! Solar Absorptance
  0.92;                                   ! Visible Absorptance

OS:Construction,
  {a22c03c6-59f5-45f3-a225-7e89b772595b}, ! Handle
  90.1-1999 Res B11 Roof Attic and Other, ! Name
  ,                                       ! Surface Rendering Name
  {03660a42-d91f-4936-b0d1-88474442d651}, ! Layer 1
  {e3309dd9-fc0d-43bf-af70-1c16c9e16b27}, ! Layer 2
  {b7f6fc17-873f-46b9-b5fa-632e40c8de41}, ! Layer 3
  {543034a9-05cd-4922-8375-1adfa5fe2b94}; ! Layer 4

OS:Material,
  {03660a42-d91f-4936-b0d1-88474442d651}, ! Handle
  Wood Shingles,                          ! Name
  VeryRough,                              ! Roughness
  0.0178,                                 ! Thickness {m}
  0.115,                                  ! Conductivity {W/m-K}
  513,                                    ! Density {kg/m3}
  1255,                                   ! Specific Heat {J/kg-K}
  0.9,                                    ! Thermal Absorptance
  0.78,                                   ! Solar Absorptance
  0.78;                                   ! Visible Absorptance

OS:Material,
  {b7f6fc17-873f-46b9-b5fa-632e40c8de41}, ! Handle
  Roof Insulation [2],                    ! Name
  MediumRough,                            ! Roughness
  0.221604,                               ! Thickness {m}
  0.049,                                  ! Conductivity {W/m-K}
  265,                                    ! Density {kg/m3}
  836.8,                                  ! Specific Heat {J/kg-K}
  0.9,                                    ! Thermal Absorptance
  0.7,                                    ! Solar Absorptance
  0.7;                                    ! Visible Absorptance

OS:ComponentCost:LineItem,
  {f1e2d20c-c16c-4e24-92ea-9ba215c350a1}, ! Handle
  90.1-1999 Res B11 Roof Attic and Other, ! Name
  ,                                       ! Type
  Construction,                           ! Line Item Type
  90.1-1999 Res B11 Roof Attic and Other, ! Item Name
  ,                                       ! Object End Use Key
  ,                                       ! Quantity {dimensionless}
  33.39,                                  ! Material Cost {$}
  CostPerArea;                            ! Material Cost Units

