
OS:Version,
  {ef17f101-0466-4f7f-a19b-3539c52b10b9}, ! Handle
  0.9.3;                                  ! Version Identifier

OS:Material,
  {83ef36ef-c9bf-40b6-9bf7-97fc6ad8b50f}, ! Handle
  1/2IN Gypsum,                           ! Name
  Smooth,                                 ! Roughness
  0.01271,                                ! Thickness {m}
  0.16,                                   ! Conductivity {W/m-K}
  784.9,                                  ! Density {kg/m3}
  830,                                    ! Specific Heat {J/kg-K}
  0.9,                                    ! Thermal Absorptance
  0.92,                                   ! Solar Absorptance
  0.92;                                   ! Visible Absorptance

OS:Material,
  {7d63ad84-9cd7-4a54-a5a2-829d3c09c0d4}, ! Handle
  1IN Stucco,                             ! Name
  Smooth,                                 ! Roughness
  0.0253,                                 ! Thickness {m}
  0.6918,                                 ! Conductivity {W/m-K}
  1858,                                   ! Density {kg/m3}
  837,                                    ! Specific Heat {J/kg-K}
  0.9,                                    ! Thermal Absorptance
  0.92,                                   ! Solar Absorptance
  0.92;                                   ! Visible Absorptance

OS:ComponentCost:LineItem,
  {81e1bec9-a614-4ecc-a6d5-4d824eeb3d44}, ! Handle
  90.1-1999 Res B4 Ext Wall Mass,         ! Name
  ,                                       ! Type
  Construction,                           ! Line Item Type
  90.1-1999 Res B4 Ext Wall Mass,         ! Item Name
  ,                                       ! Object End Use Key
  ,                                       ! Quantity {dimensionless}
  41.397,                                 ! Material Cost {$}
  CostPerArea;                            ! Material Cost Units

OS:Material,
  {0d99489b-d4af-4327-bbcf-1460433b6d74}, ! Handle
  8IN Concrete HW,                        ! Name
  MediumRough,                            ! Roughness
  0.2033,                                 ! Thickness {m}
  1.7296,                                 ! Conductivity {W/m-K}
  2243,                                   ! Density {kg/m3}
  837,                                    ! Specific Heat {J/kg-K}
  0.9,                                    ! Thermal Absorptance
  0.65,                                   ! Solar Absorptance
  0.65;                                   ! Visible Absorptance

OS:Construction,
  {bbd403cb-a30c-4497-b558-3eec35b84943}, ! Handle
  90.1-1999 Res B4 Ext Wall Mass,         ! Name
  ,                                       ! Surface Rendering Name
  {7d63ad84-9cd7-4a54-a5a2-829d3c09c0d4}, ! Layer 1
  {0d99489b-d4af-4327-bbcf-1460433b6d74}, ! Layer 2
  {83ef36ef-c9bf-40b6-9bf7-97fc6ad8b50f}; ! Layer 3

