
OS:Version,
  {8d1c5d73-309f-4bb6-9ce1-ffa17ce841f7}, ! Handle
  0.9.3;                                  ! Version Identifier

OS:Material,
  {5958a1fd-34a7-4aea-8996-c74469673f65}, ! Handle
  Metal Roofing,                          ! Name
  MediumSmooth,                           ! Roughness
  0.001524,                               ! Thickness {m}
  45.006,                                 ! Conductivity {W/m-K}
  7680,                                   ! Density {kg/m3}
  418.4,                                  ! Specific Heat {J/kg-K}
  0.9,                                    ! Thermal Absorptance
  0.7,                                    ! Solar Absorptance
  0.3;                                    ! Visible Absorptance

OS:Material,
  {fdd89ed8-71f0-4eaa-925e-287a682e63c3}, ! Handle
  Roof Insulation [27],                   ! Name
  MediumRough,                            ! Roughness
  0.297033,                               ! Thickness {m}
  0.049,                                  ! Conductivity {W/m-K}
  265,                                    ! Density {kg/m3}
  836.8,                                  ! Specific Heat {J/kg-K}
  0.9,                                    ! Thermal Absorptance
  0.7,                                    ! Solar Absorptance
  0.7;                                    ! Visible Absorptance

OS:Construction,
  {c56d2117-6462-49ab-9a79-485215c9e3e7}, ! Handle
  189.1-2009 Nonres 8A Roof Metal Building, ! Name
  ,                                       ! Surface Rendering Name
  {5958a1fd-34a7-4aea-8996-c74469673f65}, ! Layer 1
  {fdd89ed8-71f0-4eaa-925e-287a682e63c3}; ! Layer 2

OS:ComponentCost:LineItem,
  {92a42303-ce0c-4a99-9756-a692c43f02e5}, ! Handle
  189.1-2009 Nonres 8A Roof Metal Building, ! Name
  ,                                       ! Type
  Construction,                           ! Line Item Type
  189.1-2009 Nonres 8A Roof Metal Building, ! Item Name
  ,                                       ! Object End Use Key
  ,                                       ! Quantity {dimensionless}
  51.833,                                 ! Material Cost {$}
  CostPerArea;                            ! Material Cost Units

