
OS:Version,
  {aa68cc32-be30-4fe3-87bd-c08907aa08d0}, ! Handle
  0.9.3;                                  ! Version Identifier

OS:Construction,
  {a95d1257-2809-45e3-a979-49c7100beaa9}, ! Handle
  90.1-1999 Nonres B21 Ext Slab Unheated - 4in Slab with Carpet, ! Name
  ,                                       ! Surface Rendering Name
  {ca3edd18-5ab8-4d7d-a8e2-97486fc98556}, ! Layer 1
  {659b01f0-77f0-4dd4-9598-3d471b445a7f}; ! Layer 2

OS:Material,
  {ca3edd18-5ab8-4d7d-a8e2-97486fc98556}, ! Handle
  MAT-CC05 4 HW CONCRETE,                 ! Name
  Rough,                                  ! Roughness
  0.1016,                                 ! Thickness {m}
  1.311,                                  ! Conductivity {W/m-K}
  2240,                                   ! Density {kg/m3}
  836.8,                                  ! Specific Heat {J/kg-K}
  0.9,                                    ! Thermal Absorptance
  0.7,                                    ! Solar Absorptance
  0.7;                                    ! Visible Absorptance

OS:Material:NoMass,
  {659b01f0-77f0-4dd4-9598-3d471b445a7f}, ! Handle
  CP02 CARPET PAD,                        ! Name
  VeryRough,                              ! Roughness
  0.21648,                                ! Thermal Resistance {m2-K/W}
  0.9,                                    ! Thermal Absorptance
  0.7,                                    ! Solar Absorptance
  0.8;                                    ! Visible Absorptance

OS:ComponentCost:LineItem,
  {fe8a7781-b705-453d-9f07-3a0d8aa3d8bc}, ! Handle
  90.1-1999 Nonres B21 Ext Slab Unheated - 4in Slab with Carpet, ! Name
  ,                                       ! Type
  Construction,                           ! Line Item Type
  90.1-1999 Nonres B21 Ext Slab Unheated - 4in Slab with Carpet, ! Item Name
  ,                                       ! Object End Use Key
  ,                                       ! Quantity {dimensionless}
  45.52,                                  ! Material Cost {$}
  CostPerArea;                            ! Material Cost Units

OS:ComponentData,
  {e980c438-49ac-4f7f-8c1f-8d4694cfa9a3}, ! Handle
  Component Data 1,                       ! Name
  {ca2adaa9-f586-4195-8e13-ad1fc32016a3}, ! UUID
  {1a878731-2677-4b05-9bb9-4cd997c4bd13}, ! Version UUID
  1363981134,                             ! Creation Timestamp
  1363981134,                             ! Version Timestamp
  {a95d1257-2809-45e3-a979-49c7100beaa9}, ! Name of Object 1
  {ca3edd18-5ab8-4d7d-a8e2-97486fc98556}, ! Name of Object 2
  {659b01f0-77f0-4dd4-9598-3d471b445a7f}, ! Name of Object 3
  {fe8a7781-b705-453d-9f07-3a0d8aa3d8bc}; ! Name of Object 4

