
! 
OS:Version,
  {9c37d538-db0d-4a47-9850-5bede7e76bd5}, !- Handle
  1.13.0;                                 !- Version Identifier


! {"nombreProductoCorto": "CLIMALIT PLUS con COOL LITE SKN 165 F2 6 (16 argon90%) 44.2", "codigoEAN": "", "handle": "0e7a412c-a5e7-4204-acf9-5e29f7569090", "g": 0.34, "tV": 0.6, "u": 1.0, "nombreProducto": "CLIMALIT PLUS con COOL LITE SKN 165 F2 6 (16 argon90%) 44.2\nU:1.0 W/m2K - g:0.34 - Tv: 0.60"}
OS:WindowMaterial:SimpleGlazingSystem,
  {0e7a412c-a5e7-4204-acf9-5e29f7569090}, !- Handle
  CLIMALIT PLUS con COOL LITE SKN 165 F2 6 (16 argon90%) 44.2, !- Name
  1.0,                                    !- U-Factor {W/m2-K}
  0.34,                                    !- Solar Heat Gain Coefficient
  0.6;                                    !- Visible Transmittance     
  
  
OS:Construction,
  {0dd48fcd-238a-43be-a8a1-2852abd9b6c5}, !- Handle
  CLIMALIT PLUS con COOL LITE SKN 165 F2 6 (16 argon90%) 44.2,                         !- Name
  ,                                       !- Surface Rendering Name
  {0e7a412c-a5e7-4204-acf9-5e29f7569090}; !- Layer 1  

