
OS:Version,
  {a0b83ede-381b-4279-b39d-7453315097ad}, !- Handle
  1.1.0;                                  !- Version Identifier

OS:Construction,
  {75f1d951-c032-4d66-ac05-8fc1b210cbd6}, !- Handle
  Sgl Ref-C-L Tint 6mm,                   !- Name
  ,                                       !- Surface Rendering Name
  {fb24af60-6ab4-4dad-9e2b-c63647b55c34}; !- Layer 1

OS:WindowMaterial:Glazing,
  {fb24af60-6ab4-4dad-9e2b-c63647b55c34}, !- Handle
  REF C TINT LO 6MM,                      !- Name
  SpectralAverage,                        !- Optical Data Type
  ,                                       !- Window Glass Spectral Data Set Name
  0.006,                                  !- Thickness {m}
  0.07,                                   !- Solar Transmittance at Normal Incidence
  0.13,                                   !- Front Side Solar Reflectance at Normal Incidence
  0.49,                                   !- Back Side Solar Reflectance at Normal Incidence
  0.08,                                   !- Visible Transmittance at Normal Incidence
  0.13,                                   !- Front Side Visible Reflectance at Normal Incidence
  0.42,                                   !- Back Side Visible Reflectance at Normal Incidence
  0,                                      !- Infrared Transmittance at Normal Incidence
  0.84,                                   !- Front Side Infrared Hemispherical Emissivity
  0.43,                                   !- Back Side Infrared Hemispherical Emissivity
  0.9;                                    !- Conductivity {W/m-K}

OS:ComponentData,
  {c87777ef-2efd-4064-9b26-e434fd88868a}, !- Handle
  Component Data 1,                       !- Name
  {2c0f3388-2f18-48bd-81eb-6a1151d8906a}, !- UUID
  {9736118f-11ab-42cb-afbb-d8d2d077cfb5}, !- Version UUID
  1384380187,                             !- Creation Timestamp
  1384380187,                             !- Version Timestamp
  {75f1d951-c032-4d66-ac05-8fc1b210cbd6}, !- Name of Object 1
  {fb24af60-6ab4-4dad-9e2b-c63647b55c34}; !- Name of Object 2

