
OS:Version,
  {b47afda1-f68d-4086-a5fd-721322ad3373}, !- Handle
  1.1.0;                                  !- Version Identifier

OS:Construction,
  {5ef6f3ee-35f7-4d38-b56b-14d6157d563f}, !- Handle
  Sgl Ref-C-L Tint 6mm,                   !- Name
  ,                                       !- Surface Rendering Name
  {354fb5c5-51af-4436-b14d-2351e0108771}; !- Layer 1

OS:WindowMaterial:Glazing,
  {354fb5c5-51af-4436-b14d-2351e0108771}, !- Handle
  REF C TINT LO 6MM,                      !- Name
  SpectralAverage,                        !- Optical Data Type
  ,                                       !- Window Glass Spectral Data Set Name
  0.006,                                  !- Thickness {m}
  0.07,                                   !- Solar Transmittance at Normal Incidence
  0.13,                                   !- Front Side Solar Reflectance at Normal Incidence
  0.49,                                   !- Back Side Solar Reflectance at Normal Incidence
  0.08,                                   !- Visible Transmittance at Normal Incidence
  0.13,                                   !- Front Side Visible Reflectance at Normal Incidence
  0.42,                                   !- Back Side Visible Reflectance at Normal Incidence
  0,                                      !- Infrared Transmittance at Normal Incidence
  0.84,                                   !- Front Side Infrared Hemispherical Emissivity
  0.43,                                   !- Back Side Infrared Hemispherical Emissivity
  0.9;                                    !- Conductivity {W/m-K}

