
OS:Version,
  {2934f817-07a4-483d-9665-5b9eecc9e904}, ! Handle
  0.9.3;                                  ! Version Identifier

OS:Construction,
  {a9a6651d-0548-4949-be19-ac3a4b7d84b8}, ! Handle
  90.1-1999 Nonres B10 Ext Wall Steel-Framed, ! Name
  ,                                       ! Surface Rendering Name
  {648fe46d-6775-479e-8ab4-4dfc16020bca}, ! Layer 1
  {666ff58d-21ba-4057-9489-74e410567b91}, ! Layer 2
  {2c64afb9-72a9-45b2-a3d3-b5a24c86164a}; ! Layer 3

OS:Material:NoMass,
  {648fe46d-6775-479e-8ab4-4dfc16020bca}, ! Handle
  MAT-SHEATH,                             ! Name
  Rough,                                  ! Roughness
  0.36256,                                ! Thermal Resistance {m2-K/W}
  0.9,                                    ! Thermal Absorptance
  0.7,                                    ! Solar Absorptance
  0.7;                                    ! Visible Absorptance

OS:Material,
  {666ff58d-21ba-4057-9489-74e410567b91}, ! Handle
  Wall Insulation [1],                    ! Name
  MediumRough,                            ! Roughness
  0.0373223,                              ! Thickness {m}
  0.045,                                  ! Conductivity {W/m-K}
  265,                                    ! Density {kg/m3}
  836.8,                                  ! Specific Heat {J/kg-K}
  0.9,                                    ! Thermal Absorptance
  0.7,                                    ! Solar Absorptance
  0.7;                                    ! Visible Absorptance

OS:Material,
  {2c64afb9-72a9-45b2-a3d3-b5a24c86164a}, ! Handle
  1/2IN Gypsum,                           ! Name
  Smooth,                                 ! Roughness
  0.01271,                                ! Thickness {m}
  0.16,                                   ! Conductivity {W/m-K}
  784.9,                                  ! Density {kg/m3}
  830,                                    ! Specific Heat {J/kg-K}
  0.9,                                    ! Thermal Absorptance
  0.92,                                   ! Solar Absorptance
  0.92;                                   ! Visible Absorptance

OS:ComponentCost:LineItem,
  {5d125b33-2f30-4c01-b161-a116ae164280}, ! Handle
  90.1-1999 Nonres B10 Ext Wall Steel-Framed, ! Name
  ,                                       ! Type
  Construction,                           ! Line Item Type
  90.1-1999 Nonres B10 Ext Wall Steel-Framed, ! Item Name
  ,                                       ! Object End Use Key
  ,                                       ! Quantity {dimensionless}
  87.08,                                  ! Material Cost {$}
  CostPerArea;                            ! Material Cost Units

