
OS:Version,
  {1e40503f-603f-453c-b7bc-0808a012435c}, ! Handle
  0.9.3;                                  ! Version Identifier

OS:Construction,
  {ffda0992-4a28-4295-8173-d87bda0e9916}, ! Handle
  90.1-1999 Nonres B10 Ext Wall Steel-Framed, ! Name
  ,                                       ! Surface Rendering Name
  {bbb9392a-4450-456f-9514-c4fe7f58b9c7}, ! Layer 1
  {cd58bd59-f112-4973-8fe9-5d2ad0d563e7}, ! Layer 2
  {3a351974-0465-4c38-aa5e-7f381ed42cca}; ! Layer 3

OS:Material:NoMass,
  {bbb9392a-4450-456f-9514-c4fe7f58b9c7}, ! Handle
  MAT-SHEATH,                             ! Name
  Rough,                                  ! Roughness
  0.36256,                                ! Thermal Resistance {m2-K/W}
  0.9,                                    ! Thermal Absorptance
  0.7,                                    ! Solar Absorptance
  0.7;                                    ! Visible Absorptance

OS:Material,
  {cd58bd59-f112-4973-8fe9-5d2ad0d563e7}, ! Handle
  Wall Insulation [1],                    ! Name
  MediumRough,                            ! Roughness
  0.0373223,                              ! Thickness {m}
  0.045,                                  ! Conductivity {W/m-K}
  265,                                    ! Density {kg/m3}
  836.8,                                  ! Specific Heat {J/kg-K}
  0.9,                                    ! Thermal Absorptance
  0.7,                                    ! Solar Absorptance
  0.7;                                    ! Visible Absorptance

OS:Material,
  {3a351974-0465-4c38-aa5e-7f381ed42cca}, ! Handle
  1/2IN Gypsum,                           ! Name
  Smooth,                                 ! Roughness
  0.01271,                                ! Thickness {m}
  0.16,                                   ! Conductivity {W/m-K}
  784.9,                                  ! Density {kg/m3}
  830,                                    ! Specific Heat {J/kg-K}
  0.9,                                    ! Thermal Absorptance
  0.92,                                   ! Solar Absorptance
  0.92;                                   ! Visible Absorptance

OS:ComponentCost:LineItem,
  {96f24862-cb80-4ce1-b0ad-f1b746b18679}, ! Handle
  90.1-1999 Nonres B10 Ext Wall Steel-Framed, ! Name
  ,                                       ! Type
  Construction,                           ! Line Item Type
  90.1-1999 Nonres B10 Ext Wall Steel-Framed, ! Item Name
  ,                                       ! Object End Use Key
  ,                                       ! Quantity {dimensionless}
  87.08,                                  ! Material Cost {$}
  CostPerArea;                            ! Material Cost Units

OS:ComponentData,
  {f9518eb1-072d-416c-9c3c-21fdc222c5f7}, ! Handle
  Component Data 1,                       ! Name
  {bcd674f7-0e31-42b7-8428-956cd41df0a8}, ! UUID
  {645060e0-71af-4432-9480-cfb839da8e67}, ! Version UUID
  1363981081,                             ! Creation Timestamp
  1363981081,                             ! Version Timestamp
  {ffda0992-4a28-4295-8173-d87bda0e9916}, ! Name of Object 1
  {bbb9392a-4450-456f-9514-c4fe7f58b9c7}, ! Name of Object 2
  {cd58bd59-f112-4973-8fe9-5d2ad0d563e7}, ! Name of Object 3
  {3a351974-0465-4c38-aa5e-7f381ed42cca}, ! Name of Object 4
  {96f24862-cb80-4ce1-b0ad-f1b746b18679}; ! Name of Object 5

