
OS:Version,
  {c3c78019-908f-46d6-944b-0a021473a369}, ! Handle
  0.9.3;                                  ! Version Identifier

OS:Material,
  {2b21723f-bbc1-4afb-b114-2ff3c17134e4}, ! Handle
  1/2IN Gypsum,                           ! Name
  Smooth,                                 ! Roughness
  0.01271,                                ! Thickness {m}
  0.16,                                   ! Conductivity {W/m-K}
  784.9,                                  ! Density {kg/m3}
  830,                                    ! Specific Heat {J/kg-K}
  0.9,                                    ! Thermal Absorptance
  0.92,                                   ! Solar Absorptance
  0.92;                                   ! Visible Absorptance

OS:ComponentCost:LineItem,
  {2205b163-edc9-4712-bd97-ae043bb29237}, ! Handle
  AEDG SHC Nonres 6B Ext Wall Steel-Framed, ! Name
  ,                                       ! Type
  Construction,                           ! Line Item Type
  AEDG SHC Nonres 6B Ext Wall Steel-Framed, ! Item Name
  ,                                       ! Object End Use Key
  ,                                       ! Quantity {dimensionless}
  0,                                      ! Material Cost {$}
  CostPerArea;                            ! Material Cost Units

OS:Material:NoMass,
  {7843b6c2-547b-45d9-b47f-b9ed0777d124}, ! Handle
  MAT-SHEATH,                             ! Name
  Rough,                                  ! Roughness
  0.36256,                                ! Thermal Resistance {m2-K/W}
  0.9,                                    ! Thermal Absorptance
  0.7,                                    ! Solar Absorptance
  0.7;                                    ! Visible Absorptance

OS:Material,
  {2ba2dc87-f121-40ec-a8fc-5130ab822546}, ! Handle
  Wall Insulation [64],                   ! Name
  MediumRough,                            ! Roughness
  0.18644,                                ! Thickness {m}
  0.045,                                  ! Conductivity {W/m-K}
  265,                                    ! Density {kg/m3}
  836.8,                                  ! Specific Heat {J/kg-K}
  0.9,                                    ! Thermal Absorptance
  0.7,                                    ! Solar Absorptance
  0.7;                                    ! Visible Absorptance

OS:Construction,
  {ec97ab16-7da8-4171-b545-af2799e014e4}, ! Handle
  AEDG SHC Nonres 6B Ext Wall Steel-Framed, ! Name
  ,                                       ! Surface Rendering Name
  {7843b6c2-547b-45d9-b47f-b9ed0777d124}, ! Layer 1
  {2ba2dc87-f121-40ec-a8fc-5130ab822546}, ! Layer 2
  {2b21723f-bbc1-4afb-b114-2ff3c17134e4}; ! Layer 3

