
OS:Version,
  {f48b8924-2104-4622-929f-fca3980af890}, ! Handle
  0.9.3;                                  ! Version Identifier

OS:Material,
  {9a70e9c7-2686-433d-9fe8-f1e076a76bac}, ! Handle
  Roof Membrane,                          ! Name
  VeryRough,                              ! Roughness
  0.0095,                                 ! Thickness {m}
  0.16,                                   ! Conductivity {W/m-K}
  1121.29,                                ! Density {kg/m3}
  1460,                                   ! Specific Heat {J/kg-K}
  0.9,                                    ! Thermal Absorptance
  0.7,                                    ! Solar Absorptance
  0.7;                                    ! Visible Absorptance

OS:Material,
  {8139ed19-07f4-4182-8a14-3f736ab389b1}, ! Handle
  Metal Decking,                          ! Name
  MediumSmooth,                           ! Roughness
  0.001524,                               ! Thickness {m}
  45.006,                                 ! Conductivity {W/m-K}
  7680,                                   ! Density {kg/m3}
  418.4,                                  ! Specific Heat {J/kg-K}
  0.9,                                    ! Thermal Absorptance
  0.7,                                    ! Solar Absorptance
  0.3;                                    ! Visible Absorptance

OS:Construction,
  {4b12c85d-cfef-4a22-abf6-f23686478fc0}, ! Handle
  90.1-2007 Res 4B Roof IEAD,             ! Name
  ,                                       ! Surface Rendering Name
  {9a70e9c7-2686-433d-9fe8-f1e076a76bac}, ! Layer 1
  {6f14ef3d-1dca-421d-ab64-6485f23dc398}, ! Layer 2
  {8139ed19-07f4-4182-8a14-3f736ab389b1}; ! Layer 3

OS:Material,
  {6f14ef3d-1dca-421d-ab64-6485f23dc398}, ! Handle
  Roof Insulation [14],                   ! Name
  MediumRough,                            ! Roughness
  0.167335,                               ! Thickness {m}
  0.049,                                  ! Conductivity {W/m-K}
  265,                                    ! Density {kg/m3}
  836.8,                                  ! Specific Heat {J/kg-K}
  0.9,                                    ! Thermal Absorptance
  0.7,                                    ! Solar Absorptance
  0.7;                                    ! Visible Absorptance

OS:ComponentCost:LineItem,
  {4ff9d53a-d28a-43b5-bfc6-c6d2e5a261a1}, ! Handle
  90.1-2007 Res 4B Roof IEAD,             ! Name
  ,                                       ! Type
  Construction,                           ! Line Item Type
  90.1-2007 Res 4B Roof IEAD,             ! Item Name
  ,                                       ! Object End Use Key
  ,                                       ! Quantity {dimensionless}
  52.87,                                  ! Material Cost {$}
  CostPerArea;                            ! Material Cost Units

