
OS:Version,
  {37de76eb-2cbb-4e88-8d34-1ea9788eb73e}, ! Handle
  0.9.3;                                  ! Version Identifier

OS:Construction,
  {cb5e0f54-1903-4463-827f-c00647da12cf}, ! Handle
  AEDG SHC Nonres 4B Exposed Floor Mass,  ! Name
  ,                                       ! Surface Rendering Name
  {85868ab1-26e7-4d3c-ae99-c0c45a901d0c}, ! Layer 1
  {49e2f3c1-ccc7-45ea-abd5-65ddbcbd20a7}, ! Layer 2
  {dd98270a-b016-4544-97f2-d4237f13ee9a}; ! Layer 3

OS:Material,
  {85868ab1-26e7-4d3c-ae99-c0c45a901d0c}, ! Handle
  Floor Insulation [14],                  ! Name
  MediumRough,                            ! Roughness
  0.11376,                                ! Thickness {m}
  0.045,                                  ! Conductivity {W/m-K}
  265,                                    ! Density {kg/m3}
  836.8,                                  ! Specific Heat {J/kg-K}
  0.9,                                    ! Thermal Absorptance
  0.7,                                    ! Solar Absorptance
  0.7;                                    ! Visible Absorptance

OS:Material,
  {49e2f3c1-ccc7-45ea-abd5-65ddbcbd20a7}, ! Handle
  MAT-CC05 8 HW CONCRETE,                 ! Name
  Rough,                                  ! Roughness
  0.20321,                                ! Thickness {m}
  1.311,                                  ! Conductivity {W/m-K}
  2240,                                   ! Density {kg/m3}
  836.8,                                  ! Specific Heat {J/kg-K}
  0.9,                                    ! Thermal Absorptance
  0.7,                                    ! Solar Absorptance
  0.7;                                    ! Visible Absorptance

OS:Material:NoMass,
  {dd98270a-b016-4544-97f2-d4237f13ee9a}, ! Handle
  CP02 CARPET PAD,                        ! Name
  VeryRough,                              ! Roughness
  0.21648,                                ! Thermal Resistance {m2-K/W}
  0.9,                                    ! Thermal Absorptance
  0.7,                                    ! Solar Absorptance
  0.8;                                    ! Visible Absorptance

OS:ComponentCost:LineItem,
  {6ba6f86d-8ffa-496d-a842-bbf39d282dd2}, ! Handle
  AEDG SHC Nonres 4B Exposed Floor Mass,  ! Name
  ,                                       ! Type
  Construction,                           ! Line Item Type
  AEDG SHC Nonres 4B Exposed Floor Mass,  ! Item Name
  ,                                       ! Object End Use Key
  ,                                       ! Quantity {dimensionless}
  0,                                      ! Material Cost {$}
  CostPerArea;                            ! Material Cost Units

