
OS:Version,
  {8db69d35-6197-43d4-b387-931a67f3094f}, ! Handle
  0.9.3;                                  ! Version Identifier

OS:ComponentCost:LineItem,
  {b4ca4d19-a197-434f-a63f-7c22cbb8c1de}, ! Handle
  90.1-1999 Res B17 Int Wall,             ! Name
  ,                                       ! Type
  Construction,                           ! Line Item Type
  90.1-1999 Res B17 Int Wall,             ! Item Name
  ,                                       ! Object End Use Key
  ,                                       ! Quantity {dimensionless}
  0,                                      ! Material Cost {$}
  CostPerArea;                            ! Material Cost Units

OS:Material,
  {cbd1bb1e-6b51-4b91-8567-e5290898d116}, ! Handle
  GP01 1/2 GYPSUM 1,                      ! Name
  Smooth,                                 ! Roughness
  0.01271,                                ! Thickness {m}
  0.16,                                   ! Conductivity {W/m-K}
  800,                                    ! Density {kg/m3}
  1090,                                   ! Specific Heat {J/kg-K}
  0.9,                                    ! Thermal Absorptance
  0.7,                                    ! Solar Absorptance
  0.5;                                    ! Visible Absorptance

OS:Construction,
  {4b3bc601-3e48-4a1a-ac9a-9aeaff7fb300}, ! Handle
  90.1-1999 Res B17 Int Wall,             ! Name
  ,                                       ! Surface Rendering Name
  {bba5d31a-fc00-4e8f-9c0e-af412e7ed680}, ! Layer 1
  {bba5d31a-fc00-4e8f-9c0e-af412e7ed680}; ! Layer 2

OS:Material,
  {bba5d31a-fc00-4e8f-9c0e-af412e7ed680}, ! Handle
  GP01 1/2 GYPSUM,                        ! Name
  Smooth,                                 ! Roughness
  0.01271,                                ! Thickness {m}
  0.16,                                   ! Conductivity {W/m-K}
  800,                                    ! Density {kg/m3}
  1090,                                   ! Specific Heat {J/kg-K}
  0.9,                                    ! Thermal Absorptance
  0.7,                                    ! Solar Absorptance
  0.5;                                    ! Visible Absorptance

