
OS:Version,
  {800ef429-1297-4c3e-8f61-380408619b55}, ! Handle
  0.9.3;                                  ! Version Identifier

OS:WindowMaterial:Glazing,
  {b470fbfc-6b95-4dab-a284-96b9e266ea5d}, ! Handle
  Theoretical Glass [216],                ! Name
  SpectralAverage,                        ! Optical Data Type
  ,                                       ! Window Glass Spectral Data Set Name
  0.003,                                  ! Thickness {m}
  0.380095,                               ! Solar Transmittance at Normal Incidence
  0.569905,                               ! Front Side Solar Reflectance at Normal Incidence
  0.569905,                               ! Back Side Solar Reflectance at Normal Incidence
  0.507883,                               ! Visible Transmittance at Normal Incidence
  0.442117,                               ! Front Side Visible Reflectance at Normal Incidence
  0.442117,                               ! Back Side Visible Reflectance at Normal Incidence
  0,                                      ! Infrared Transmittance at Normal Incidence
  0.9,                                    ! Front Side Infrared Hemispherical Emissivity
  0.9,                                    ! Back Side Infrared Hemispherical Emissivity
  0.0133189;                              ! Conductivity {W/m-K}

OS:Construction,
  {4e15541d-ad31-48c1-a231-b037a1659534}, ! Handle
  189.1-2009 Res 6B Window Metal framing all other, ! Name
  ,                                       ! Surface Rendering Name
  {b470fbfc-6b95-4dab-a284-96b9e266ea5d}; ! Layer 1

OS:ComponentCost:LineItem,
  {59c1a20a-11cb-421e-818d-fae84a930a86}, ! Handle
  189.1-2009 Res 6B Window Metal framing all other, ! Name
  ,                                       ! Type
  Construction,                           ! Line Item Type
  189.1-2009 Res 6B Window Metal framing all other, ! Item Name
  ,                                       ! Object End Use Key
  ,                                       ! Quantity {dimensionless}
  512.02,                                 ! Material Cost {$}
  CostPerArea;                            ! Material Cost Units

