
OS:Version,
  {fc218c33-4b15-4d00-8d2c-845c3c144ccc}, ! Handle
  0.9.3;                                  ! Version Identifier

OS:Construction,
  {8e7be4c0-39d4-4f18-94bf-7fa30cc8cb2e}, ! Handle
  90.1-2004 Nonres 1A Ext Slab Unheated - 8in Slab with Carpet, ! Name
  ,                                       ! Surface Rendering Name
  {8f8b1cfc-d35f-4b32-830e-652f538cdcd9}, ! Layer 1
  {15ac3600-dcb0-4acc-91a5-4565481020f9}; ! Layer 2

OS:Material,
  {8f8b1cfc-d35f-4b32-830e-652f538cdcd9}, ! Handle
  MAT-CC05 8 HW CONCRETE,                 ! Name
  Rough,                                  ! Roughness
  0.20321,                                ! Thickness {m}
  1.311,                                  ! Conductivity {W/m-K}
  2240,                                   ! Density {kg/m3}
  836.8,                                  ! Specific Heat {J/kg-K}
  0.9,                                    ! Thermal Absorptance
  0.7,                                    ! Solar Absorptance
  0.7;                                    ! Visible Absorptance

OS:Material:NoMass,
  {15ac3600-dcb0-4acc-91a5-4565481020f9}, ! Handle
  CP02 CARPET PAD,                        ! Name
  VeryRough,                              ! Roughness
  0.21648,                                ! Thermal Resistance {m2-K/W}
  0.9,                                    ! Thermal Absorptance
  0.7,                                    ! Solar Absorptance
  0.8;                                    ! Visible Absorptance

OS:ComponentCost:LineItem,
  {0556e191-4672-4ae3-a004-b198145e3282}, ! Handle
  90.1-2004 Nonres 1A Ext Slab Unheated - 8in Slab with Carpet, ! Name
  ,                                       ! Type
  Construction,                           ! Line Item Type
  90.1-2004 Nonres 1A Ext Slab Unheated - 8in Slab with Carpet, ! Item Name
  ,                                       ! Object End Use Key
  ,                                       ! Quantity {dimensionless}
  45.52,                                  ! Material Cost {$}
  CostPerArea;                            ! Material Cost Units

OS:ComponentData,
  {c0ce56fa-27ff-49f9-97f3-05cac0407b10}, ! Handle
  Component Data 1,                       ! Name
  {480397e4-363f-4eb4-a279-e4d825c6b82d}, ! UUID
  {5d9b8a73-8768-4f31-9bf9-e4b8a385e5ae}, ! Version UUID
  1363981629,                             ! Creation Timestamp
  1363981629,                             ! Version Timestamp
  {8e7be4c0-39d4-4f18-94bf-7fa30cc8cb2e}, ! Name of Object 1
  {8f8b1cfc-d35f-4b32-830e-652f538cdcd9}, ! Name of Object 2
  {15ac3600-dcb0-4acc-91a5-4565481020f9}, ! Name of Object 3
  {0556e191-4672-4ae3-a004-b198145e3282}; ! Name of Object 4

