
OS:Version,
  {845a6c9e-0c5d-44ec-8aef-da38019e1429}, ! Handle
  0.9.3;                                  ! Version Identifier

OS:ComponentCost:LineItem,
  {3ec15d05-e8c5-4b7e-8542-94d8b54514ce}, ! Handle
  90.1-2004 Nonres 1A Ext Slab Unheated - 8in Slab with Carpet, ! Name
  ,                                       ! Type
  Construction,                           ! Line Item Type
  90.1-2004 Nonres 1A Ext Slab Unheated - 8in Slab with Carpet, ! Item Name
  ,                                       ! Object End Use Key
  ,                                       ! Quantity {dimensionless}
  45.52,                                  ! Material Cost {$}
  CostPerArea;                            ! Material Cost Units

OS:Material:NoMass,
  {1b8dd5bd-0bbc-424b-8065-7ce88e6696be}, ! Handle
  CP02 CARPET PAD,                        ! Name
  VeryRough,                              ! Roughness
  0.21648,                                ! Thermal Resistance {m2-K/W}
  0.9,                                    ! Thermal Absorptance
  0.7,                                    ! Solar Absorptance
  0.8;                                    ! Visible Absorptance

OS:Material,
  {7a524042-22af-4b4f-a9ce-29c313676aa8}, ! Handle
  MAT-CC05 8 HW CONCRETE,                 ! Name
  Rough,                                  ! Roughness
  0.20321,                                ! Thickness {m}
  1.311,                                  ! Conductivity {W/m-K}
  2240,                                   ! Density {kg/m3}
  836.8,                                  ! Specific Heat {J/kg-K}
  0.9,                                    ! Thermal Absorptance
  0.7,                                    ! Solar Absorptance
  0.7;                                    ! Visible Absorptance

OS:Construction,
  {565899d6-6b4b-465d-89ad-424ae6056c3b}, ! Handle
  90.1-2004 Nonres 1A Ext Slab Unheated - 8in Slab with Carpet, ! Name
  ,                                       ! Surface Rendering Name
  {7a524042-22af-4b4f-a9ce-29c313676aa8}, ! Layer 1
  {1b8dd5bd-0bbc-424b-8065-7ce88e6696be}; ! Layer 2

