
OS:Version,
  {cb0ad1f2-49ce-47d5-b6f4-48528448ae98}, ! Handle
  0.9.3;                                  ! Version Identifier

OS:Material,
  {743d10e9-d3f3-4c65-bfe5-11b2493dac3f}, ! Handle
  Roof Insulation [1],                    ! Name
  MediumRough,                            ! Roughness
  0.123533,                               ! Thickness {m}
  0.049,                                  ! Conductivity {W/m-K}
  265,                                    ! Density {kg/m3}
  836.8,                                  ! Specific Heat {J/kg-K}
  0.9,                                    ! Thermal Absorptance
  0.7,                                    ! Solar Absorptance
  0.7;                                    ! Visible Absorptance

OS:Material,
  {346bc2aa-675e-47b2-a3b2-f4904f926dc3}, ! Handle
  Metal Roofing,                          ! Name
  MediumSmooth,                           ! Roughness
  0.001524,                               ! Thickness {m}
  45.006,                                 ! Conductivity {W/m-K}
  7680,                                   ! Density {kg/m3}
  418.4,                                  ! Specific Heat {J/kg-K}
  0.9,                                    ! Thermal Absorptance
  0.7,                                    ! Solar Absorptance
  0.3;                                    ! Visible Absorptance

OS:ComponentCost:LineItem,
  {5028485f-d8d0-41d9-a64a-7cacd6c3d8ff}, ! Handle
  90.1-2001 Nonres B10 Roof Metal Building, ! Name
  ,                                       ! Type
  Construction,                           ! Line Item Type
  90.1-2001 Nonres B10 Roof Metal Building, ! Item Name
  ,                                       ! Object End Use Key
  ,                                       ! Quantity {dimensionless}
  38.206,                                 ! Material Cost {$}
  CostPerArea;                            ! Material Cost Units

OS:Construction,
  {8ed68aa2-7435-4774-b9ad-4d0a8c55ed70}, ! Handle
  90.1-2001 Nonres B10 Roof Metal Building, ! Name
  ,                                       ! Surface Rendering Name
  {346bc2aa-675e-47b2-a3b2-f4904f926dc3}, ! Layer 1
  {743d10e9-d3f3-4c65-bfe5-11b2493dac3f}; ! Layer 2

