
OS:Version,
  {721d4afb-ac67-4233-b77f-91a119810a56}, ! Handle
  0.9.3;                                  ! Version Identifier

OS:Construction,
  {8d05fd6c-e8d6-4ee7-85b6-75dcfd94cb3a}, ! Handle
  90.1-1999 Nonres B2 Ext Slab Unheated - 8in Slab with Carpet, ! Name
  ,                                       ! Surface Rendering Name
  {61ebb840-277e-47dc-a65c-1c89809c819f}, ! Layer 1
  {11d0ecf2-f43b-462f-b39a-760cb90109ed}; ! Layer 2

OS:Material,
  {61ebb840-277e-47dc-a65c-1c89809c819f}, ! Handle
  MAT-CC05 8 HW CONCRETE,                 ! Name
  Rough,                                  ! Roughness
  0.20321,                                ! Thickness {m}
  1.311,                                  ! Conductivity {W/m-K}
  2240,                                   ! Density {kg/m3}
  836.8,                                  ! Specific Heat {J/kg-K}
  0.9,                                    ! Thermal Absorptance
  0.7,                                    ! Solar Absorptance
  0.7;                                    ! Visible Absorptance

OS:Material:NoMass,
  {11d0ecf2-f43b-462f-b39a-760cb90109ed}, ! Handle
  CP02 CARPET PAD,                        ! Name
  VeryRough,                              ! Roughness
  0.21648,                                ! Thermal Resistance {m2-K/W}
  0.9,                                    ! Thermal Absorptance
  0.7,                                    ! Solar Absorptance
  0.8;                                    ! Visible Absorptance

OS:ComponentCost:LineItem,
  {6f9345bc-39dc-4a21-8650-64b94171e227}, ! Handle
  90.1-1999 Nonres B2 Ext Slab Unheated - 8in Slab with Carpet, ! Name
  ,                                       ! Type
  Construction,                           ! Line Item Type
  90.1-1999 Nonres B2 Ext Slab Unheated - 8in Slab with Carpet, ! Item Name
  ,                                       ! Object End Use Key
  ,                                       ! Quantity {dimensionless}
  45.52,                                  ! Material Cost {$}
  CostPerArea;                            ! Material Cost Units

OS:ComponentData,
  {8099f706-e239-462e-9652-fa856725aa8f}, ! Handle
  Component Data 1,                       ! Name
  {2753bf6d-b2e6-48fc-b624-7cf8e2268418}, ! UUID
  {383b728f-1cd5-4f8b-bb64-d81910c24402}, ! Version UUID
  1363981043,                             ! Creation Timestamp
  1363981043,                             ! Version Timestamp
  {8d05fd6c-e8d6-4ee7-85b6-75dcfd94cb3a}, ! Name of Object 1
  {61ebb840-277e-47dc-a65c-1c89809c819f}, ! Name of Object 2
  {11d0ecf2-f43b-462f-b39a-760cb90109ed}, ! Name of Object 3
  {6f9345bc-39dc-4a21-8650-64b94171e227}; ! Name of Object 4

