
! 
OS:Version,
  {9c37d538-db0d-4a47-9850-5bede7e76bd5}, !- Handle
  1.13.0;                                 !- Version Identifier


! {"nombreProductoCorto": "CLIMALIT PLUS con PLANITHERM PLANISTAR ONE F2 44.1 (16 argon90%) 44.2", "codigoEAN": "", "handle": "113249ca-4f14-479a-a390-c2f041704e1d", "g": 0.36, "tV": 0.7, "u": 1.0, "nombreProducto": "CLIMALIT PLUS con PLANITHERM PLANISTAR ONE F2 44.1 (16 argon90%) 44.2\nU:1.0 W/m2K - g:0.36 - Tv: 0.70"}
OS:WindowMaterial:SimpleGlazingSystem,
  {113249ca-4f14-479a-a390-c2f041704e1d}, !- Handle
  CLIMALIT PLUS con PLANITHERM PLANISTAR ONE F2 44.1 (16 argon90%) 44.2, !- Name
  1.0,                                    !- U-Factor {W/m2-K}
  0.36,                                    !- Solar Heat Gain Coefficient
  0.7;                                    !- Visible Transmittance     
  
  
OS:Construction,
  {ee3e4ffd-0680-4314-a71d-53210bf5d7b0}, !- Handle
  CLIMALIT PLUS con PLANITHERM PLANISTAR ONE F2 44.1 (16 argon90%) 44.2,                         !- Name
  ,                                       !- Surface Rendering Name
  {113249ca-4f14-479a-a390-c2f041704e1d}; !- Layer 1  

