
OS:Version,
  {e7f56117-7698-4883-8a88-3a390bccf367}, ! Handle
  0.9.3;                                  ! Version Identifier

OS:Construction,
  {25745a67-2a87-4d96-a92b-65144d9c8b53}, ! Handle
  90.1-2001 Nonres B20 Window Fixed,      ! Name
  ,                                       ! Surface Rendering Name
  {1ae34e07-f4b3-401f-9c3f-67acadacb181}; ! Layer 1

OS:WindowMaterial:Glazing,
  {1ae34e07-f4b3-401f-9c3f-67acadacb181}, ! Handle
  Theoretical Glass [41],                 ! Name
  SpectralAverage,                        ! Optical Data Type
  ,                                       ! Window Glass Spectral Data Set Name
  0.003,                                  ! Thickness {m}
  0.633525,                               ! Solar Transmittance at Normal Incidence
  0.316475,                               ! Front Side Solar Reflectance at Normal Incidence
  0.316475,                               ! Back Side Solar Reflectance at Normal Incidence
  0.706654,                               ! Visible Transmittance at Normal Incidence
  0.243346,                               ! Front Side Visible Reflectance at Normal Incidence
  0.243346,                               ! Back Side Visible Reflectance at Normal Incidence
  0,                                      ! Infrared Transmittance at Normal Incidence
  0.9,                                    ! Front Side Infrared Hemispherical Emissivity
  0.9,                                    ! Back Side Infrared Hemispherical Emissivity
  0.0134755;                              ! Conductivity {W/m-K}

OS:ComponentCost:LineItem,
  {6e399714-67a0-40bb-9de8-f55c93eb8a3a}, ! Handle
  90.1-2001 Nonres B20 Window Fixed,      ! Name
  ,                                       ! Type
  Construction,                           ! Line Item Type
  90.1-2001 Nonres B20 Window Fixed,      ! Item Name
  ,                                       ! Object End Use Key
  ,                                       ! Quantity {dimensionless}
  531.711,                                ! Material Cost {$}
  CostPerArea;                            ! Material Cost Units

