
OS:Version,
  {ca9903bf-e2fa-4171-b97f-25f4696860ec}, ! Handle
  0.9.3;                                  ! Version Identifier

OS:Construction,
  {e17637aa-74e4-437e-8194-a505dc83911b}, ! Handle
  90.1-2001 Nonres B20 Window Fixed,      ! Name
  ,                                       ! Surface Rendering Name
  {165fe5e6-1282-4a56-9948-6051d7b6d9cd}; ! Layer 1

OS:WindowMaterial:Glazing,
  {165fe5e6-1282-4a56-9948-6051d7b6d9cd}, ! Handle
  Theoretical Glass [41],                 ! Name
  SpectralAverage,                        ! Optical Data Type
  ,                                       ! Window Glass Spectral Data Set Name
  0.003,                                  ! Thickness {m}
  0.633525,                               ! Solar Transmittance at Normal Incidence
  0.316475,                               ! Front Side Solar Reflectance at Normal Incidence
  0.316475,                               ! Back Side Solar Reflectance at Normal Incidence
  0.706654,                               ! Visible Transmittance at Normal Incidence
  0.243346,                               ! Front Side Visible Reflectance at Normal Incidence
  0.243346,                               ! Back Side Visible Reflectance at Normal Incidence
  0,                                      ! Infrared Transmittance at Normal Incidence
  0.9,                                    ! Front Side Infrared Hemispherical Emissivity
  0.9,                                    ! Back Side Infrared Hemispherical Emissivity
  0.0134755;                              ! Conductivity {W/m-K}

OS:ComponentCost:LineItem,
  {37a88dfe-7c4f-4642-b80c-45a673545ef4}, ! Handle
  90.1-2001 Nonres B20 Window Fixed,      ! Name
  ,                                       ! Type
  Construction,                           ! Line Item Type
  90.1-2001 Nonres B20 Window Fixed,      ! Item Name
  ,                                       ! Object End Use Key
  ,                                       ! Quantity {dimensionless}
  531.711,                                ! Material Cost {$}
  CostPerArea;                            ! Material Cost Units

OS:ComponentData,
  {1c8191a6-2c58-47fb-9532-a50f73cde4be}, ! Handle
  Component Data 1,                       ! Name
  {aa09d47c-da1f-4b8a-ad00-010ad78e930d}, ! UUID
  {c46f679b-57d3-41ad-b3b1-087fa9b70999}, ! Version UUID
  1363981404,                             ! Creation Timestamp
  1363981404,                             ! Version Timestamp
  {e17637aa-74e4-437e-8194-a505dc83911b}, ! Name of Object 1
  {165fe5e6-1282-4a56-9948-6051d7b6d9cd}, ! Name of Object 2
  {37a88dfe-7c4f-4642-b80c-45a673545ef4}; ! Name of Object 3

