
OS:Version,
  {d935f08f-2f5b-43de-90ba-71ffa8d36ba2}, !- Handle
  1.1.0;                                  !- Version Identifier

OS:Construction,
  {9484e577-1f17-4624-8b51-c824a3f2f4dc}, !- Handle
  Sgl Ref-B-M Tint 6mm,                   !- Name
  ,                                       !- Surface Rendering Name
  {6044b55c-56be-407a-866d-2626355fc94d}; !- Layer 1

OS:WindowMaterial:Glazing,
  {6044b55c-56be-407a-866d-2626355fc94d}, !- Handle
  REF B TINT MID 6MM,                     !- Name
  SpectralAverage,                        !- Optical Data Type
  ,                                       !- Window Glass Spectral Data Set Name
  0.006,                                  !- Thickness {m}
  0.1,                                    !- Solar Transmittance at Normal Incidence
  0.11,                                   !- Front Side Solar Reflectance at Normal Incidence
  0.41,                                   !- Back Side Solar Reflectance at Normal Incidence
  0.13,                                   !- Visible Transmittance at Normal Incidence
  0.1,                                    !- Front Side Visible Reflectance at Normal Incidence
  0.32,                                   !- Back Side Visible Reflectance at Normal Incidence
  0,                                      !- Infrared Transmittance at Normal Incidence
  0.84,                                   !- Front Side Infrared Hemispherical Emissivity
  0.45,                                   !- Back Side Infrared Hemispherical Emissivity
  0.9;                                    !- Conductivity {W/m-K}

