
OS:Version,
  {25c213a6-263a-4f89-b532-7ba40f4c8160}, ! Handle
  0.9.3;                                  ! Version Identifier

OS:Construction,
  {f191bc9b-a526-47f2-936c-956b72ce264a}, ! Handle
  AEDG-SmOffice 8A Ext Wall Wood-Framed and Other, ! Name
  ,                                       ! Surface Rendering Name
  {2bda0465-effd-4584-b65c-286ded9c6922}, ! Layer 1
  {83ffe7e8-38a8-462a-aef3-f0d544b70f13}, ! Layer 2
  {64a96e7d-f04e-4f11-b3ea-db6361cec083}; ! Layer 3

OS:Material,
  {2bda0465-effd-4584-b65c-286ded9c6922}, ! Handle
  Wood Siding,                            ! Name
  MediumSmooth,                           ! Roughness
  0.01,                                   ! Thickness {m}
  0.11,                                   ! Conductivity {W/m-K}
  544.62,                                 ! Density {kg/m3}
  1210,                                   ! Specific Heat {J/kg-K}
  0.9,                                    ! Thermal Absorptance
  0.78,                                   ! Solar Absorptance
  0.78;                                   ! Visible Absorptance

OS:Material,
  {83ffe7e8-38a8-462a-aef3-f0d544b70f13}, ! Handle
  Wall Insulation [19],                   ! Name
  MediumRough,                            ! Roughness
  0.161389,                               ! Thickness {m}
  0.045,                                  ! Conductivity {W/m-K}
  265,                                    ! Density {kg/m3}
  836.8,                                  ! Specific Heat {J/kg-K}
  0.9,                                    ! Thermal Absorptance
  0.7,                                    ! Solar Absorptance
  0.7;                                    ! Visible Absorptance

OS:Material,
  {64a96e7d-f04e-4f11-b3ea-db6361cec083}, ! Handle
  1/2IN Gypsum,                           ! Name
  Smooth,                                 ! Roughness
  0.01271,                                ! Thickness {m}
  0.16,                                   ! Conductivity {W/m-K}
  784.9,                                  ! Density {kg/m3}
  830,                                    ! Specific Heat {J/kg-K}
  0.9,                                    ! Thermal Absorptance
  0.92,                                   ! Solar Absorptance
  0.92;                                   ! Visible Absorptance

OS:ComponentCost:LineItem,
  {0af2268d-1250-4092-8929-31836b018429}, ! Handle
  AEDG-SmOffice 8A Ext Wall Wood-Framed and Other, ! Name
  ,                                       ! Type
  Construction,                           ! Line Item Type
  AEDG-SmOffice 8A Ext Wall Wood-Framed and Other, ! Item Name
  ,                                       ! Object End Use Key
  ,                                       ! Quantity {dimensionless}
  83.273,                                 ! Material Cost {$}
  CostPerArea;                            ! Material Cost Units

OS:ComponentData,
  {d5f39ff2-b625-49b2-91df-4bb8da6c39b3}, ! Handle
  Component Data 1,                       ! Name
  {55dc9326-0199-4351-9625-e79d81a9cb17}, ! UUID
  {ed5227ac-3373-4205-a45a-f89a8cc8ecd0}, ! Version UUID
  1363981968,                             ! Creation Timestamp
  1363981968,                             ! Version Timestamp
  {f191bc9b-a526-47f2-936c-956b72ce264a}, ! Name of Object 1
  {2bda0465-effd-4584-b65c-286ded9c6922}, ! Name of Object 2
  {83ffe7e8-38a8-462a-aef3-f0d544b70f13}, ! Name of Object 3
  {64a96e7d-f04e-4f11-b3ea-db6361cec083}, ! Name of Object 4
  {0af2268d-1250-4092-8929-31836b018429}; ! Name of Object 5

