
OS:Version,
  {e667e32a-a19f-45b7-84c3-a55bf1b36f4e}, ! Handle
  0.9.3;                                  ! Version Identifier

OS:Material,
  {39422a41-c9f9-4aa6-8137-f825f1b515f2}, ! Handle
  Wall Insulation [19],                   ! Name
  MediumRough,                            ! Roughness
  0.161389,                               ! Thickness {m}
  0.045,                                  ! Conductivity {W/m-K}
  265,                                    ! Density {kg/m3}
  836.8,                                  ! Specific Heat {J/kg-K}
  0.9,                                    ! Thermal Absorptance
  0.7,                                    ! Solar Absorptance
  0.7;                                    ! Visible Absorptance

OS:ComponentCost:LineItem,
  {64f112f1-3ddd-4475-b2b1-49ff4386da76}, ! Handle
  AEDG-SmOffice 8A Ext Wall Wood-Framed and Other, ! Name
  ,                                       ! Type
  Construction,                           ! Line Item Type
  AEDG-SmOffice 8A Ext Wall Wood-Framed and Other, ! Item Name
  ,                                       ! Object End Use Key
  ,                                       ! Quantity {dimensionless}
  83.273,                                 ! Material Cost {$}
  CostPerArea;                            ! Material Cost Units

OS:Construction,
  {4a61886e-de1c-4a81-9607-0431d943bdc0}, ! Handle
  AEDG-SmOffice 8A Ext Wall Wood-Framed and Other, ! Name
  ,                                       ! Surface Rendering Name
  {039a36a8-916a-4500-be4d-656498b84c9a}, ! Layer 1
  {39422a41-c9f9-4aa6-8137-f825f1b515f2}, ! Layer 2
  {ddb2cab6-34a2-4b58-ba3d-69da625a449c}; ! Layer 3

OS:Material,
  {039a36a8-916a-4500-be4d-656498b84c9a}, ! Handle
  Wood Siding,                            ! Name
  MediumSmooth,                           ! Roughness
  0.01,                                   ! Thickness {m}
  0.11,                                   ! Conductivity {W/m-K}
  544.62,                                 ! Density {kg/m3}
  1210,                                   ! Specific Heat {J/kg-K}
  0.9,                                    ! Thermal Absorptance
  0.78,                                   ! Solar Absorptance
  0.78;                                   ! Visible Absorptance

OS:Material,
  {ddb2cab6-34a2-4b58-ba3d-69da625a449c}, ! Handle
  1/2IN Gypsum,                           ! Name
  Smooth,                                 ! Roughness
  0.01271,                                ! Thickness {m}
  0.16,                                   ! Conductivity {W/m-K}
  784.9,                                  ! Density {kg/m3}
  830,                                    ! Specific Heat {J/kg-K}
  0.9,                                    ! Thermal Absorptance
  0.92,                                   ! Solar Absorptance
  0.92;                                   ! Visible Absorptance

