
OS:Version,
  {b29ae551-17a6-479d-8794-7a4786fd0474}, ! Handle
  0.9.3;                                  ! Version Identifier

OS:Material,
  {5440a013-0bf0-4efe-97b8-14a8fca51ea0}, ! Handle
  Roof Insulation [7],                    ! Name
  MediumRough,                            ! Roughness
  0.167563,                               ! Thickness {m}
  0.049,                                  ! Conductivity {W/m-K}
  265,                                    ! Density {kg/m3}
  836.8,                                  ! Specific Heat {J/kg-K}
  0.9,                                    ! Thermal Absorptance
  0.7,                                    ! Solar Absorptance
  0.7;                                    ! Visible Absorptance

OS:Material,
  {7dcc7824-de9f-44a3-8e78-1064eb44d8b9}, ! Handle
  Metal Decking,                          ! Name
  MediumSmooth,                           ! Roughness
  0.001524,                               ! Thickness {m}
  45.006,                                 ! Conductivity {W/m-K}
  7680,                                   ! Density {kg/m3}
  418.4,                                  ! Specific Heat {J/kg-K}
  0.9,                                    ! Thermal Absorptance
  0.7,                                    ! Solar Absorptance
  0.3;                                    ! Visible Absorptance

OS:Construction,
  {981869d4-7d06-4bd0-8f57-a83308ae1d6a}, ! Handle
  90.1-2001 Nonres B25 Roof IEAD,         ! Name
  ,                                       ! Surface Rendering Name
  {50d71406-2669-407d-9756-685b2e50db14}, ! Layer 1
  {5440a013-0bf0-4efe-97b8-14a8fca51ea0}, ! Layer 2
  {7dcc7824-de9f-44a3-8e78-1064eb44d8b9}; ! Layer 3

OS:Material,
  {50d71406-2669-407d-9756-685b2e50db14}, ! Handle
  Roof Membrane,                          ! Name
  VeryRough,                              ! Roughness
  0.0095,                                 ! Thickness {m}
  0.16,                                   ! Conductivity {W/m-K}
  1121.29,                                ! Density {kg/m3}
  1460,                                   ! Specific Heat {J/kg-K}
  0.9,                                    ! Thermal Absorptance
  0.7,                                    ! Solar Absorptance
  0.7;                                    ! Visible Absorptance

OS:ComponentCost:LineItem,
  {91fcbbf3-5543-46f0-adb8-88b8192f5402}, ! Handle
  90.1-2001 Nonres B25 Roof IEAD,         ! Name
  ,                                       ! Type
  Construction,                           ! Line Item Type
  90.1-2001 Nonres B25 Roof IEAD,         ! Item Name
  ,                                       ! Object End Use Key
  ,                                       ! Quantity {dimensionless}
  52.896,                                 ! Material Cost {$}
  CostPerArea;                            ! Material Cost Units

