
OS:Version,
  {18c2720c-bf5b-44b4-b668-1ae105bffbdc}, ! Handle
  0.9.3;                                  ! Version Identifier

OS:Material,
  {c35a0f74-34df-4ebc-bac9-28fd2bc49f49}, ! Handle
  1/2IN Gypsum,                           ! Name
  Smooth,                                 ! Roughness
  0.01271,                                ! Thickness {m}
  0.16,                                   ! Conductivity {W/m-K}
  784.9,                                  ! Density {kg/m3}
  830,                                    ! Specific Heat {J/kg-K}
  0.9,                                    ! Thermal Absorptance
  0.92,                                   ! Solar Absorptance
  0.92;                                   ! Visible Absorptance

OS:Material,
  {6f0197c8-1912-42d7-9388-cbb0975fb0a6}, ! Handle
  Wall Insulation [5],                    ! Name
  MediumRough,                            ! Roughness
  0.0453274,                              ! Thickness {m}
  0.0432,                                 ! Conductivity {W/m-K}
  91,                                     ! Density {kg/m3}
  837,                                    ! Specific Heat {J/kg-K}
  0.9,                                    ! Thermal Absorptance
  0.5,                                    ! Solar Absorptance
  0.5;                                    ! Visible Absorptance

OS:ComponentCost:LineItem,
  {7d7eafb4-3051-453d-bb88-f28aa2d6332b}, ! Handle
  90.1-1999 Res B15 Ext Wall Mass,        ! Name
  ,                                       ! Type
  Construction,                           ! Line Item Type
  90.1-1999 Res B15 Ext Wall Mass,        ! Item Name
  ,                                       ! Object End Use Key
  ,                                       ! Quantity {dimensionless}
  61.418,                                 ! Material Cost {$}
  CostPerArea;                            ! Material Cost Units

OS:Material,
  {78f85fc9-7cce-4bd8-8d0b-09c9c2042803}, ! Handle
  1IN Stucco,                             ! Name
  Smooth,                                 ! Roughness
  0.0253,                                 ! Thickness {m}
  0.6918,                                 ! Conductivity {W/m-K}
  1858,                                   ! Density {kg/m3}
  837,                                    ! Specific Heat {J/kg-K}
  0.9,                                    ! Thermal Absorptance
  0.92,                                   ! Solar Absorptance
  0.92;                                   ! Visible Absorptance

OS:Construction,
  {c6518347-f015-4921-bf07-4b18ed1c8266}, ! Handle
  90.1-1999 Res B15 Ext Wall Mass,        ! Name
  ,                                       ! Surface Rendering Name
  {78f85fc9-7cce-4bd8-8d0b-09c9c2042803}, ! Layer 1
  {b6505ea2-98cb-46fe-82ea-8122bbad71b5}, ! Layer 2
  {6f0197c8-1912-42d7-9388-cbb0975fb0a6}, ! Layer 3
  {c35a0f74-34df-4ebc-bac9-28fd2bc49f49}; ! Layer 4

OS:Material,
  {b6505ea2-98cb-46fe-82ea-8122bbad71b5}, ! Handle
  8IN Concrete HW,                        ! Name
  MediumRough,                            ! Roughness
  0.2033,                                 ! Thickness {m}
  1.7296,                                 ! Conductivity {W/m-K}
  2243,                                   ! Density {kg/m3}
  837,                                    ! Specific Heat {J/kg-K}
  0.9,                                    ! Thermal Absorptance
  0.65,                                   ! Solar Absorptance
  0.65;                                   ! Visible Absorptance

