
OS:Version,
  {1724d5fa-db4f-4cb0-8fb3-1c46d94cd514}, ! Handle
  0.9.3;                                  ! Version Identifier

OS:Construction,
  {5186f3ac-51dc-46ff-81e3-70e68cca19e2}, ! Handle
  Title 24-2008 Nonres 9 Skylight without Curb, ! Name
  ,                                       ! Surface Rendering Name
  {6a7325e9-24d6-4376-8378-22c084fc7788}; ! Layer 1

OS:WindowMaterial:Glazing,
  {6a7325e9-24d6-4376-8378-22c084fc7788}, ! Handle
  Theoretical Glass [681],                ! Name
  SpectralAverage,                        ! Optical Data Type
  ,                                       ! Window Glass Spectral Data Set Name
  0.003,                                  ! Thickness {m}
  0.390498,                               ! Solar Transmittance at Normal Incidence
  0.559502,                               ! Front Side Solar Reflectance at Normal Incidence
  0.559502,                               ! Back Side Solar Reflectance at Normal Incidence
  0.400004,                               ! Visible Transmittance at Normal Incidence
  0.549996,                               ! Front Side Visible Reflectance at Normal Incidence
  0.549996,                               ! Back Side Visible Reflectance at Normal Incidence
  0,                                      ! Infrared Transmittance at Normal Incidence
  0.9,                                    ! Front Side Infrared Hemispherical Emissivity
  0.9,                                    ! Back Side Infrared Hemispherical Emissivity
  0.0498596;                              ! Conductivity {W/m-K}

OS:ComponentCost:LineItem,
  {80b19113-2bdb-4043-9da8-86c76e43884f}, ! Handle
  Title 24-2008 Nonres 9 Skylight without Curb, ! Name
  ,                                       ! Type
  Construction,                           ! Line Item Type
  Title 24-2008 Nonres 9 Skylight without Curb, ! Item Name
  ,                                       ! Object End Use Key
  ,                                       ! Quantity {dimensionless}
  511.59,                                 ! Material Cost {$}
  CostPerArea;                            ! Material Cost Units

OS:ComponentData,
  {95da2e66-bcfd-4ac4-b858-c2be1cbdec79}, ! Handle
  Component Data 1,                       ! Name
  {b2739e5d-24c3-4d52-b34c-22e6def0c6a6}, ! UUID
  {375035a4-f41e-417c-aa27-74f4254cce84}, ! Version UUID
  1363982059,                             ! Creation Timestamp
  1363982059,                             ! Version Timestamp
  {5186f3ac-51dc-46ff-81e3-70e68cca19e2}, ! Name of Object 1
  {6a7325e9-24d6-4376-8378-22c084fc7788}, ! Name of Object 2
  {80b19113-2bdb-4043-9da8-86c76e43884f}; ! Name of Object 3

