
OS:Version,
  {ee0f7ce5-9c6a-4810-93b3-7e29ef33c5d2}, ! Handle
  0.9.3;                                  ! Version Identifier

OS:ComponentCost:LineItem,
  {fd3365a1-4e4c-402b-921b-47143931fe09}, ! Handle
  Title 24-2008 Nonres 9 Skylight without Curb, ! Name
  ,                                       ! Type
  Construction,                           ! Line Item Type
  Title 24-2008 Nonres 9 Skylight without Curb, ! Item Name
  ,                                       ! Object End Use Key
  ,                                       ! Quantity {dimensionless}
  511.59,                                 ! Material Cost {$}
  CostPerArea;                            ! Material Cost Units

OS:WindowMaterial:Glazing,
  {19f262b1-35db-47c9-8752-4711f0b8a9a1}, ! Handle
  Theoretical Glass [681],                ! Name
  SpectralAverage,                        ! Optical Data Type
  ,                                       ! Window Glass Spectral Data Set Name
  0.003,                                  ! Thickness {m}
  0.390498,                               ! Solar Transmittance at Normal Incidence
  0.559502,                               ! Front Side Solar Reflectance at Normal Incidence
  0.559502,                               ! Back Side Solar Reflectance at Normal Incidence
  0.400004,                               ! Visible Transmittance at Normal Incidence
  0.549996,                               ! Front Side Visible Reflectance at Normal Incidence
  0.549996,                               ! Back Side Visible Reflectance at Normal Incidence
  0,                                      ! Infrared Transmittance at Normal Incidence
  0.9,                                    ! Front Side Infrared Hemispherical Emissivity
  0.9,                                    ! Back Side Infrared Hemispherical Emissivity
  0.0498596;                              ! Conductivity {W/m-K}

OS:Construction,
  {8eeaeca6-2182-4d4d-8502-7b80ab4649ae}, ! Handle
  Title 24-2008 Nonres 9 Skylight without Curb, ! Name
  ,                                       ! Surface Rendering Name
  {19f262b1-35db-47c9-8752-4711f0b8a9a1}; ! Layer 1

