
OS:Version,
  {ab4f8d90-897b-4f13-a55d-d2f483027785}, ! Handle
  0.9.3;                                  ! Version Identifier

OS:Construction,
  {039935ba-16b8-4c59-a567-39d5916c52c4}, ! Handle
  90.1 Windows Window Fixed 2360 Brk-ClrSpe-Std-ClrSpe, ! Name
  ,                                       ! Surface Rendering Name
  {8bebdaae-8866-4c14-9b5b-cd3ea3fce2fe}; ! Layer 1

OS:WindowMaterial:Glazing,
  {8bebdaae-8866-4c14-9b5b-cd3ea3fce2fe}, ! Handle
  Theoretical Glass [597],                ! Name
  SpectralAverage,                        ! Optical Data Type
  ,                                       ! Window Glass Spectral Data Set Name
  0.003,                                  ! Thickness {m}
  0.473624,                               ! Solar Transmittance at Normal Incidence
  0.476376,                               ! Front Side Solar Reflectance at Normal Incidence
  0.476376,                               ! Back Side Solar Reflectance at Normal Incidence
  0.609218,                               ! Visible Transmittance at Normal Incidence
  0.340782,                               ! Front Side Visible Reflectance at Normal Incidence
  0.340782,                               ! Back Side Visible Reflectance at Normal Incidence
  0,                                      ! Infrared Transmittance at Normal Incidence
  0.9,                                    ! Front Side Infrared Hemispherical Emissivity
  0.9,                                    ! Back Side Infrared Hemispherical Emissivity
  0.013476;                               ! Conductivity {W/m-K}

OS:ComponentCost:LineItem,
  {2f0fe12c-fdba-4f98-9d1a-3f378dfdef6c}, ! Handle
  90.1 Windows Window Fixed 2360 Brk-ClrSpe-Std-ClrSpe, ! Name
  ,                                       ! Type
  Construction,                           ! Line Item Type
  90.1 Windows Window Fixed 2360 Brk-ClrSpe-Std-ClrSpe, ! Item Name
  ,                                       ! Object End Use Key
  ,                                       ! Quantity {dimensionless}
  0,                                      ! Material Cost {$}
  CostPerArea;                            ! Material Cost Units

