
! 
OS:Version,
  {8503bb35-3288-4176-9c41-752f3d976c4b}, !- Handle
  1.13.0;                                 !- Version Identifier


! 
OS:Material,
  {fc34f313-99c6-45ee-9afe-b3a66ba8482b}, !- Handle
  Aislamiento: 
WEBER: weber.therm placa de corcho 110 (0.110 m)
R: 2.8 m2K/W,                             !- Name
  MediumRough,                                 !- Roughness
  0.11,                                    !- Thickness {m}
  0.04,                                    !- Conductivity {W/m-K}
  110.0,                                    !- Density {kg/m3}
  1852.0,                                    !- Specific Heat {J/kg-K}
  0.9,                                    !- Thermal Absorptance
  0.6,                                    !- Solar Absorptance
  0.6;                                    !- Visible Absorptance

