
OS:Version,
  {86c29752-2e05-4c32-89a5-16f46347fa42}, ! Handle
  0.9.3;                                  ! Version Identifier

OS:Material:NoMass,
  {5bbf5a63-378b-4983-b17b-879311b38669}, ! Handle
  MAT-SHEATH,                             ! Name
  Rough,                                  ! Roughness
  0.36256,                                ! Thermal Resistance {m2-K/W}
  0.9,                                    ! Thermal Absorptance
  0.7,                                    ! Solar Absorptance
  0.7;                                    ! Visible Absorptance

OS:ComponentCost:LineItem,
  {ad49ac4e-a181-4ca1-a291-ea00e26df64c}, ! Handle
  90.1-2007 Res 6B Ext Wall Steel-Framed, ! Name
  ,                                       ! Type
  Construction,                           ! Line Item Type
  90.1-2007 Res 6B Ext Wall Steel-Framed, ! Item Name
  ,                                       ! Object End Use Key
  ,                                       ! Quantity {dimensionless}
  94.657,                                 ! Material Cost {$}
  CostPerArea;                            ! Material Cost Units

OS:Material,
  {dcbbdc86-2103-4880-8762-63055ade310a}, ! Handle
  1/2IN Gypsum,                           ! Name
  Smooth,                                 ! Roughness
  0.01271,                                ! Thickness {m}
  0.16,                                   ! Conductivity {W/m-K}
  784.9,                                  ! Density {kg/m3}
  830,                                    ! Specific Heat {J/kg-K}
  0.9,                                    ! Thermal Absorptance
  0.92,                                   ! Solar Absorptance
  0.92;                                   ! Visible Absorptance

OS:Material,
  {17ad3fd5-8b5a-4142-a4b5-68355c6bc50e}, ! Handle
  Wall Insulation [10],                   ! Name
  MediumRough,                            ! Roughness
  0.0971136,                              ! Thickness {m}
  0.045,                                  ! Conductivity {W/m-K}
  265,                                    ! Density {kg/m3}
  836.8,                                  ! Specific Heat {J/kg-K}
  0.9,                                    ! Thermal Absorptance
  0.7,                                    ! Solar Absorptance
  0.7;                                    ! Visible Absorptance

OS:Construction,
  {983aeed2-3457-4e04-a9a8-d90fa03a2032}, ! Handle
  90.1-2007 Res 6B Ext Wall Steel-Framed, ! Name
  ,                                       ! Surface Rendering Name
  {5bbf5a63-378b-4983-b17b-879311b38669}, ! Layer 1
  {17ad3fd5-8b5a-4142-a4b5-68355c6bc50e}, ! Layer 2
  {dcbbdc86-2103-4880-8762-63055ade310a}; ! Layer 3

