
OS:Version,
  {d0d708ac-96ed-4dd5-a0bb-dbabad33f707}, ! Handle
  0.9.3;                                  ! Version Identifier

OS:Construction,
  {0d44c828-e56d-4012-a8e3-84763adbc6e0}, ! Handle
  90.1-1999 Res B20 Window Fixed,         ! Name
  ,                                       ! Surface Rendering Name
  {b8a1166d-be0c-4353-a35e-9410f7d2366f}; ! Layer 1

OS:WindowMaterial:Glazing,
  {b8a1166d-be0c-4353-a35e-9410f7d2366f}, ! Handle
  Theoretical Glass [102],                ! Name
  SpectralAverage,                        ! Optical Data Type
  ,                                       ! Window Glass Spectral Data Set Name
  0.003,                                  ! Thickness {m}
  0.620178,                               ! Solar Transmittance at Normal Incidence
  0.329822,                               ! Front Side Solar Reflectance at Normal Incidence
  0.329822,                               ! Back Side Solar Reflectance at Normal Incidence
  0.639644,                               ! Visible Transmittance at Normal Incidence
  0.310356,                               ! Front Side Visible Reflectance at Normal Incidence
  0.310356,                               ! Back Side Visible Reflectance at Normal Incidence
  0,                                      ! Infrared Transmittance at Normal Incidence
  0.9,                                    ! Front Side Infrared Hemispherical Emissivity
  0.9,                                    ! Back Side Infrared Hemispherical Emissivity
  0.0137862;                              ! Conductivity {W/m-K}

OS:ComponentCost:LineItem,
  {7cf82bdc-f5c3-4878-a2f9-fc4c863e0571}, ! Handle
  90.1-1999 Res B20 Window Fixed,         ! Name
  ,                                       ! Type
  Construction,                           ! Line Item Type
  90.1-1999 Res B20 Window Fixed,         ! Item Name
  ,                                       ! Object End Use Key
  ,                                       ! Quantity {dimensionless}
  531.711,                                ! Material Cost {$}
  CostPerArea;                            ! Material Cost Units

