
OS:Version,
  {803c33c9-89f2-409c-aacc-5057f13a8c0d}, ! Handle
  0.9.3;                                  ! Version Identifier

OS:Construction,
  {ff366ffe-7fc9-4d01-aecb-f833347792ea}, ! Handle
  90.1 Windows Window Fixed 2435 Brk-GrnMpr-Ins-ClrSpe, ! Name
  ,                                       ! Surface Rendering Name
  {5deca56e-14bc-434d-921e-1ba735f73957}; ! Layer 1

OS:WindowMaterial:Glazing,
  {5deca56e-14bc-434d-921e-1ba735f73957}, ! Handle
  Theoretical Glass [498],                ! Name
  SpectralAverage,                        ! Optical Data Type
  ,                                       ! Window Glass Spectral Data Set Name
  0.003,                                  ! Thickness {m}
  0.256048,                               ! Solar Transmittance at Normal Incidence
  0.693952,                               ! Front Side Solar Reflectance at Normal Incidence
  0.693952,                               ! Back Side Solar Reflectance at Normal Incidence
  0.320998,                               ! Visible Transmittance at Normal Incidence
  0.629002,                               ! Front Side Visible Reflectance at Normal Incidence
  0.629002,                               ! Back Side Visible Reflectance at Normal Incidence
  0,                                      ! Infrared Transmittance at Normal Incidence
  0.9,                                    ! Front Side Infrared Hemispherical Emissivity
  0.9,                                    ! Back Side Infrared Hemispherical Emissivity
  0.0125205;                              ! Conductivity {W/m-K}

OS:ComponentCost:LineItem,
  {70f509f5-88e1-43a3-8771-5d95ca1efd66}, ! Handle
  90.1 Windows Window Fixed 2435 Brk-GrnMpr-Ins-ClrSpe, ! Name
  ,                                       ! Type
  Construction,                           ! Line Item Type
  90.1 Windows Window Fixed 2435 Brk-GrnMpr-Ins-ClrSpe, ! Item Name
  ,                                       ! Object End Use Key
  ,                                       ! Quantity {dimensionless}
  0,                                      ! Material Cost {$}
  CostPerArea;                            ! Material Cost Units

OS:ComponentData,
  {dc3b660e-6297-4844-9ad4-dfc241a4096b}, ! Handle
  Component Data 1,                       ! Name
  {aeb2c74a-29a7-4c0e-9d3d-1263efa96aba}, ! UUID
  {3ee0e081-c26b-4b8e-9b65-945aa928688d}, ! Version UUID
  1363981024,                             ! Creation Timestamp
  1363981024,                             ! Version Timestamp
  {ff366ffe-7fc9-4d01-aecb-f833347792ea}, ! Name of Object 1
  {5deca56e-14bc-434d-921e-1ba735f73957}, ! Name of Object 2
  {70f509f5-88e1-43a3-8771-5d95ca1efd66}; ! Name of Object 3

