
OS:Version,
  {b5b73748-3669-4c51-8be2-11e39331cee9}, ! Handle
  0.9.3;                                  ! Version Identifier

OS:Construction,
  {61779c47-376e-4553-804a-046d5b1405a3}, ! Handle
  90.1 Windows Window Fixed 2435 Brk-GrnMpr-Ins-ClrSpe, ! Name
  ,                                       ! Surface Rendering Name
  {55c57e8e-3e45-417d-b4b5-999167852c33}; ! Layer 1

OS:WindowMaterial:Glazing,
  {55c57e8e-3e45-417d-b4b5-999167852c33}, ! Handle
  Theoretical Glass [498],                ! Name
  SpectralAverage,                        ! Optical Data Type
  ,                                       ! Window Glass Spectral Data Set Name
  0.003,                                  ! Thickness {m}
  0.256048,                               ! Solar Transmittance at Normal Incidence
  0.693952,                               ! Front Side Solar Reflectance at Normal Incidence
  0.693952,                               ! Back Side Solar Reflectance at Normal Incidence
  0.320998,                               ! Visible Transmittance at Normal Incidence
  0.629002,                               ! Front Side Visible Reflectance at Normal Incidence
  0.629002,                               ! Back Side Visible Reflectance at Normal Incidence
  0,                                      ! Infrared Transmittance at Normal Incidence
  0.9,                                    ! Front Side Infrared Hemispherical Emissivity
  0.9,                                    ! Back Side Infrared Hemispherical Emissivity
  0.0125205;                              ! Conductivity {W/m-K}

OS:ComponentCost:LineItem,
  {a2bf3870-86bf-46fb-b240-62fd63f20a16}, ! Handle
  90.1 Windows Window Fixed 2435 Brk-GrnMpr-Ins-ClrSpe, ! Name
  ,                                       ! Type
  Construction,                           ! Line Item Type
  90.1 Windows Window Fixed 2435 Brk-GrnMpr-Ins-ClrSpe, ! Item Name
  ,                                       ! Object End Use Key
  ,                                       ! Quantity {dimensionless}
  0,                                      ! Material Cost {$}
  CostPerArea;                            ! Material Cost Units

