
OS:Version,
  {5ebd8bb0-67b4-427a-9305-d4f9cb981cea}, ! Handle
  0.9.3;                                  ! Version Identifier

OS:Construction,
  {457b3aa9-abbc-4f4f-a9d9-c430ef96bd29}, ! Handle
  90.1-2001 Nonres B18 Roof Attic and Other, ! Name
  ,                                       ! Surface Rendering Name
  {4e8d4e90-383c-498f-ac23-98fbfe78525e}, ! Layer 1
  {6ba2b9e4-f9eb-4091-a05e-a3102e475f7c}, ! Layer 2
  {e268f45e-11b5-4c1e-92df-3ea2da4d802b}, ! Layer 3
  {092a8956-265e-4246-87d0-ba95a3a15c7a}; ! Layer 4

OS:Material,
  {4e8d4e90-383c-498f-ac23-98fbfe78525e}, ! Handle
  Wood Shingles,                          ! Name
  VeryRough,                              ! Roughness
  0.0178,                                 ! Thickness {m}
  0.115,                                  ! Conductivity {W/m-K}
  513,                                    ! Density {kg/m3}
  1255,                                   ! Specific Heat {J/kg-K}
  0.9,                                    ! Thermal Absorptance
  0.78,                                   ! Solar Absorptance
  0.78;                                   ! Visible Absorptance

OS:Material,
  {6ba2b9e4-f9eb-4091-a05e-a3102e475f7c}, ! Handle
  1IN Wood Decking,                       ! Name
  MediumSmooth,                           ! Roughness
  0.0254,                                 ! Thickness {m}
  0.1211,                                 ! Conductivity {W/m-K}
  593,                                    ! Density {kg/m3}
  2510,                                   ! Specific Heat {J/kg-K}
  0.9,                                    ! Thermal Absorptance
  0.78,                                   ! Solar Absorptance
  0.78;                                   ! Visible Absorptance

OS:Material,
  {e268f45e-11b5-4c1e-92df-3ea2da4d802b}, ! Handle
  Roof Insulation [2],                    ! Name
  MediumRough,                            ! Roughness
  0.221604,                               ! Thickness {m}
  0.049,                                  ! Conductivity {W/m-K}
  265,                                    ! Density {kg/m3}
  836.8,                                  ! Specific Heat {J/kg-K}
  0.9,                                    ! Thermal Absorptance
  0.7,                                    ! Solar Absorptance
  0.7;                                    ! Visible Absorptance

OS:Material,
  {092a8956-265e-4246-87d0-ba95a3a15c7a}, ! Handle
  1/2IN Gypsum,                           ! Name
  Smooth,                                 ! Roughness
  0.01271,                                ! Thickness {m}
  0.16,                                   ! Conductivity {W/m-K}
  784.9,                                  ! Density {kg/m3}
  830,                                    ! Specific Heat {J/kg-K}
  0.9,                                    ! Thermal Absorptance
  0.92,                                   ! Solar Absorptance
  0.92;                                   ! Visible Absorptance

OS:ComponentCost:LineItem,
  {4f36ea58-0996-4cfc-8222-0d86f5b57f75}, ! Handle
  90.1-2001 Nonres B18 Roof Attic and Other, ! Name
  ,                                       ! Type
  Construction,                           ! Line Item Type
  90.1-2001 Nonres B18 Roof Attic and Other, ! Item Name
  ,                                       ! Object End Use Key
  ,                                       ! Quantity {dimensionless}
  33.39,                                  ! Material Cost {$}
  CostPerArea;                            ! Material Cost Units

OS:ComponentData,
  {32eb4f9f-0cd8-4abe-9440-3dec332eea6a}, ! Handle
  Component Data 1,                       ! Name
  {46e29066-c34d-4ec1-9be4-56d8088930de}, ! UUID
  {a5d620ce-e139-46a9-91f7-afcbaa87705e}, ! Version UUID
  1363981387,                             ! Creation Timestamp
  1363981387,                             ! Version Timestamp
  {457b3aa9-abbc-4f4f-a9d9-c430ef96bd29}, ! Name of Object 1
  {4e8d4e90-383c-498f-ac23-98fbfe78525e}, ! Name of Object 2
  {6ba2b9e4-f9eb-4091-a05e-a3102e475f7c}, ! Name of Object 3
  {e268f45e-11b5-4c1e-92df-3ea2da4d802b}, ! Name of Object 4
  {092a8956-265e-4246-87d0-ba95a3a15c7a}, ! Name of Object 5
  {4f36ea58-0996-4cfc-8222-0d86f5b57f75}; ! Name of Object 6

