
OS:Version,
  {ce97d9cb-1812-48e1-bea5-01ad7ad3b9da}, ! Handle
  0.9.3;                                  ! Version Identifier

OS:Construction,
  {421d4a66-ab46-4421-8869-146e27afeadb}, ! Handle
  90.1-2001 Res B10 Ext Slab Unheated - 8in Slab without Carpet, ! Name
  ,                                       ! Surface Rendering Name
  {65e4eac1-df0a-4a77-a065-03b00c562423}; ! Layer 1

OS:Material,
  {65e4eac1-df0a-4a77-a065-03b00c562423}, ! Handle
  MAT-CC05 8 HW CONCRETE,                 ! Name
  Rough,                                  ! Roughness
  0.20321,                                ! Thickness {m}
  1.311,                                  ! Conductivity {W/m-K}
  2240,                                   ! Density {kg/m3}
  836.8,                                  ! Specific Heat {J/kg-K}
  0.9,                                    ! Thermal Absorptance
  0.7,                                    ! Solar Absorptance
  0.7;                                    ! Visible Absorptance

OS:ComponentCost:LineItem,
  {9ba67792-2eee-4354-a536-6540456fe419}, ! Handle
  90.1-2001 Res B10 Ext Slab Unheated - 8in Slab without Carpet, ! Name
  ,                                       ! Type
  Construction,                           ! Line Item Type
  90.1-2001 Res B10 Ext Slab Unheated - 8in Slab without Carpet, ! Item Name
  ,                                       ! Object End Use Key
  ,                                       ! Quantity {dimensionless}
  45.52,                                  ! Material Cost {$}
  CostPerArea;                            ! Material Cost Units

