
OS:Version,
  {121b0a69-bc63-480a-a445-4599fd537602}, ! Handle
  0.9.3;                                  ! Version Identifier

OS:Material,
  {a789b57a-3c9a-4745-90a9-43f7fa83dd7f}, ! Handle
  MAT-CC05 4 HW CONCRETE,                 ! Name
  Rough,                                  ! Roughness
  0.1016,                                 ! Thickness {m}
  1.311,                                  ! Conductivity {W/m-K}
  2240,                                   ! Density {kg/m3}
  836.8,                                  ! Specific Heat {J/kg-K}
  0.9,                                    ! Thermal Absorptance
  0.7,                                    ! Solar Absorptance
  0.7;                                    ! Visible Absorptance

OS:ComponentCost:LineItem,
  {2e652b7a-1581-4c4d-acdc-e04fb6573987}, ! Handle
  189.1-2009 Nonres 4B Ext Slab Unheated - 4in Slab without Carpet, ! Name
  ,                                       ! Type
  Construction,                           ! Line Item Type
  189.1-2009 Nonres 4B Ext Slab Unheated - 4in Slab without Carpet, ! Item Name
  ,                                       ! Object End Use Key
  ,                                       ! Quantity {dimensionless}
  45.52,                                  ! Material Cost {$}
  CostPerArea;                            ! Material Cost Units

OS:Construction,
  {9b34be92-900e-42c2-8f60-b1a62f3bbd3c}, ! Handle
  189.1-2009 Nonres 4B Ext Slab Unheated - 4in Slab without Carpet, ! Name
  ,                                       ! Surface Rendering Name
  {a789b57a-3c9a-4745-90a9-43f7fa83dd7f}; ! Layer 1

