
OS:Version,
  {ec81bd8a-5256-47e3-8178-a1ad287080ca}, ! Handle
  0.9.3;                                  ! Version Identifier

OS:Construction,
  {4ae16793-2569-423f-945f-8c3eb1fe727c}, ! Handle
  AEDG-SmOffice 1A Door Swinging,         ! Name
  ,                                       ! Surface Rendering Name
  {c2f8ba0f-44b1-460a-915a-bd569bd122ca}; ! Layer 1

OS:Material:NoMass,
  {c2f8ba0f-44b1-460a-915a-bd569bd122ca}, ! Handle
  DoorMaterial,                           ! Name
  MediumRough,                            ! Roughness
  0.251589,                               ! Thermal Resistance {m2-K/W}
  0.9,                                    ! Thermal Absorptance
  0.7,                                    ! Solar Absorptance
  0.7;                                    ! Visible Absorptance

OS:ComponentCost:LineItem,
  {15e604b1-647f-47a7-a994-577ac42d9d88}, ! Handle
  AEDG-SmOffice 1A Door Swinging,         ! Name
  ,                                       ! Type
  Construction,                           ! Line Item Type
  AEDG-SmOffice 1A Door Swinging,         ! Item Name
  ,                                       ! Object End Use Key
  ,                                       ! Quantity {dimensionless}
  0,                                      ! Material Cost {$}
  CostPerArea;                            ! Material Cost Units

OS:ComponentData,
  {fd57055c-8096-4cf3-952d-6f2a7f0cc9d7}, ! Handle
  Component Data 1,                       ! Name
  {537c1bc9-7f11-4775-b9cb-73eb543c877e}, ! UUID
  {47fcddeb-ea8a-4566-a9c2-f5555774e9f0}, ! Version UUID
  1363981940,                             ! Creation Timestamp
  1363981940,                             ! Version Timestamp
  {4ae16793-2569-423f-945f-8c3eb1fe727c}, ! Name of Object 1
  {c2f8ba0f-44b1-460a-915a-bd569bd122ca}, ! Name of Object 2
  {15e604b1-647f-47a7-a994-577ac42d9d88}; ! Name of Object 3

