
OS:Version,
  {a7cbc002-05f9-4917-b34b-cf379f6a7661}, ! Handle
  0.9.3;                                  ! Version Identifier

OS:Construction,
  {d8d9a425-2941-417e-9e92-02eff805fa72}, ! Handle
  90.1-2004 Nonres 4B Ext Slab Unheated - 8in Slab without Carpet, ! Name
  ,                                       ! Surface Rendering Name
  {6a6185bf-37d4-427a-9c86-ec93fc3db5b0}; ! Layer 1

OS:Material,
  {6a6185bf-37d4-427a-9c86-ec93fc3db5b0}, ! Handle
  MAT-CC05 8 HW CONCRETE,                 ! Name
  Rough,                                  ! Roughness
  0.20321,                                ! Thickness {m}
  1.311,                                  ! Conductivity {W/m-K}
  2240,                                   ! Density {kg/m3}
  836.8,                                  ! Specific Heat {J/kg-K}
  0.9,                                    ! Thermal Absorptance
  0.7,                                    ! Solar Absorptance
  0.7;                                    ! Visible Absorptance

OS:ComponentCost:LineItem,
  {75bf401c-de39-4d63-b49f-8579f997960c}, ! Handle
  90.1-2004 Nonres 4B Ext Slab Unheated - 8in Slab without Carpet, ! Name
  ,                                       ! Type
  Construction,                           ! Line Item Type
  90.1-2004 Nonres 4B Ext Slab Unheated - 8in Slab without Carpet, ! Item Name
  ,                                       ! Object End Use Key
  ,                                       ! Quantity {dimensionless}
  45.52,                                  ! Material Cost {$}
  CostPerArea;                            ! Material Cost Units

OS:ComponentData,
  {1027695b-86ce-403d-a526-d27dc082a601}, ! Handle
  Component Data 1,                       ! Name
  {36847da5-c26a-4fda-99c1-b4215b1db18a}, ! UUID
  {94b51a56-b915-4b79-bed0-e787266528b1}, ! Version UUID
  1363981670,                             ! Creation Timestamp
  1363981670,                             ! Version Timestamp
  {d8d9a425-2941-417e-9e92-02eff805fa72}, ! Name of Object 1
  {6a6185bf-37d4-427a-9c86-ec93fc3db5b0}, ! Name of Object 2
  {75bf401c-de39-4d63-b49f-8579f997960c}; ! Name of Object 3

