
OS:Version,
  {381f1928-4750-4817-b79c-76b3bbc3b94b}, ! Handle
  0.9.3;                                  ! Version Identifier

OS:Construction,
  {ab16eefe-f045-4da9-a768-6981ed2fb417}, ! Handle
  90.1-2004 Nonres 4B Ext Slab Unheated - 8in Slab without Carpet, ! Name
  ,                                       ! Surface Rendering Name
  {86604b94-0f85-48df-8e37-ae94af2bafc3}; ! Layer 1

OS:Material,
  {86604b94-0f85-48df-8e37-ae94af2bafc3}, ! Handle
  MAT-CC05 8 HW CONCRETE,                 ! Name
  Rough,                                  ! Roughness
  0.20321,                                ! Thickness {m}
  1.311,                                  ! Conductivity {W/m-K}
  2240,                                   ! Density {kg/m3}
  836.8,                                  ! Specific Heat {J/kg-K}
  0.9,                                    ! Thermal Absorptance
  0.7,                                    ! Solar Absorptance
  0.7;                                    ! Visible Absorptance

OS:ComponentCost:LineItem,
  {be7c9606-b3bc-4fa0-8fe5-5538680e75cf}, ! Handle
  90.1-2004 Nonres 4B Ext Slab Unheated - 8in Slab without Carpet, ! Name
  ,                                       ! Type
  Construction,                           ! Line Item Type
  90.1-2004 Nonres 4B Ext Slab Unheated - 8in Slab without Carpet, ! Item Name
  ,                                       ! Object End Use Key
  ,                                       ! Quantity {dimensionless}
  45.52,                                  ! Material Cost {$}
  CostPerArea;                            ! Material Cost Units

