
OS:Version,
  {cfe31470-a6ee-4a62-b9e6-acc0b77ceda5}, ! Handle
  0.9.3;                                  ! Version Identifier

OS:Material,
  {976801df-a477-47ce-9671-e91fd0edc7fc}, ! Handle
  Roof Membrane [1],                      ! Name
  VeryRough,                              ! Roughness
  0.0095,                                 ! Thickness {m}
  0.16,                                   ! Conductivity {W/m-K}
  1121.29,                                ! Density {kg/m3}
  1460,                                   ! Specific Heat {J/kg-K}
  0.9,                                    ! Thermal Absorptance
  0.3,                                    ! Solar Absorptance
  0.3;                                    ! Visible Absorptance

OS:Material,
  {0b8ac98e-78a4-4602-8527-cf41b26afd1f}, ! Handle
  Roof Insulation [31],                   ! Name
  MediumRough,                            ! Roughness
  0.209546,                               ! Thickness {m}
  0.049,                                  ! Conductivity {W/m-K}
  265,                                    ! Density {kg/m3}
  836.8,                                  ! Specific Heat {J/kg-K}
  0.9,                                    ! Thermal Absorptance
  0.7,                                    ! Solar Absorptance
  0.7;                                    ! Visible Absorptance

OS:Construction,
  {e6a8a9b6-afe8-492e-a291-2624f0b416ed}, ! Handle
  AEDG SHC Nonres 2A Roof IEAD,           ! Name
  ,                                       ! Surface Rendering Name
  {976801df-a477-47ce-9671-e91fd0edc7fc}, ! Layer 1
  {0b8ac98e-78a4-4602-8527-cf41b26afd1f}, ! Layer 2
  {594b2079-b621-4f37-a3eb-d6b2bda9770f}; ! Layer 3

OS:Material,
  {594b2079-b621-4f37-a3eb-d6b2bda9770f}, ! Handle
  Metal Decking,                          ! Name
  MediumSmooth,                           ! Roughness
  0.001524,                               ! Thickness {m}
  45.006,                                 ! Conductivity {W/m-K}
  7680,                                   ! Density {kg/m3}
  418.4,                                  ! Specific Heat {J/kg-K}
  0.9,                                    ! Thermal Absorptance
  0.7,                                    ! Solar Absorptance
  0.3;                                    ! Visible Absorptance

OS:ComponentCost:LineItem,
  {8b99cba9-e92a-4e75-b8ab-54dc09838e52}, ! Handle
  AEDG SHC Nonres 2A Roof IEAD,           ! Name
  ,                                       ! Type
  Construction,                           ! Line Item Type
  AEDG SHC Nonres 2A Roof IEAD,           ! Item Name
  ,                                       ! Object End Use Key
  ,                                       ! Quantity {dimensionless}
  0,                                      ! Material Cost {$}
  CostPerArea;                            ! Material Cost Units

