
OS:Version,
  {a80c101f-d61c-4543-8596-ff26edb8b90e}, !- Handle
  1.1.0;                                  !- Version Identifier

OS:Construction,
  {c8a79808-d898-4b68-9f95-c7b7fd3c5f19}, !- Handle
  Sgl Clr 6mm,                            !- Name
  ,                                       !- Surface Rendering Name
  {d3916237-c2a3-484c-a51b-ad844bd05d03}; !- Layer 1

OS:WindowMaterial:Glazing,
  {d3916237-c2a3-484c-a51b-ad844bd05d03}, !- Handle
  CLEAR 6MM,                              !- Name
  SpectralAverage,                        !- Optical Data Type
  ,                                       !- Window Glass Spectral Data Set Name
  0.006,                                  !- Thickness {m}
  0.775,                                  !- Solar Transmittance at Normal Incidence
  0.071,                                  !- Front Side Solar Reflectance at Normal Incidence
  0.071,                                  !- Back Side Solar Reflectance at Normal Incidence
  0.881,                                  !- Visible Transmittance at Normal Incidence
  0.08,                                   !- Front Side Visible Reflectance at Normal Incidence
  0.08,                                   !- Back Side Visible Reflectance at Normal Incidence
  0,                                      !- Infrared Transmittance at Normal Incidence
  0.84,                                   !- Front Side Infrared Hemispherical Emissivity
  0.84,                                   !- Back Side Infrared Hemispherical Emissivity
  0.9;                                    !- Conductivity {W/m-K}

