
OS:Version,
  {fe316c67-98bb-4d5e-9bd2-928df4b9035f}, !- Handle
  1.1.0;                                  !- Version Identifier

OS:Construction,
  {4add8d89-c8fc-4af7-a8da-e125442a9baf}, !- Handle
  Sgl Clr 6mm,                            !- Name
  ,                                       !- Surface Rendering Name
  {afe3b35b-237b-4bb3-88ba-72de24132321}; !- Layer 1

OS:WindowMaterial:Glazing,
  {afe3b35b-237b-4bb3-88ba-72de24132321}, !- Handle
  CLEAR 6MM,                              !- Name
  SpectralAverage,                        !- Optical Data Type
  ,                                       !- Window Glass Spectral Data Set Name
  0.006,                                  !- Thickness {m}
  0.775,                                  !- Solar Transmittance at Normal Incidence
  0.071,                                  !- Front Side Solar Reflectance at Normal Incidence
  0.071,                                  !- Back Side Solar Reflectance at Normal Incidence
  0.881,                                  !- Visible Transmittance at Normal Incidence
  0.08,                                   !- Front Side Visible Reflectance at Normal Incidence
  0.08,                                   !- Back Side Visible Reflectance at Normal Incidence
  0,                                      !- Infrared Transmittance at Normal Incidence
  0.84,                                   !- Front Side Infrared Hemispherical Emissivity
  0.84,                                   !- Back Side Infrared Hemispherical Emissivity
  0.9;                                    !- Conductivity {W/m-K}

OS:ComponentData,
  {6e1830c1-1bd8-4231-8314-ca480075ecb5}, !- Handle
  Component Data 1,                       !- Name
  {1e9c74f2-1e86-4d54-9084-46dc22aac82b}, !- UUID
  {c8f1be93-4f12-4c8a-ab97-6ed78033e0a9}, !- Version UUID
  1384380194,                             !- Creation Timestamp
  1384380194,                             !- Version Timestamp
  {4add8d89-c8fc-4af7-a8da-e125442a9baf}, !- Name of Object 1
  {afe3b35b-237b-4bb3-88ba-72de24132321}; !- Name of Object 2

