
OS:Version,
  {8fc1f744-5d9a-42a5-9556-03482ea9e712}, ! Handle
  0.9.3;                                  ! Version Identifier

OS:Material:NoMass,
  {2c9d3e2d-b62c-4452-99bf-aff3997613b4}, ! Handle
  CP02 CARPET PAD,                        ! Name
  VeryRough,                              ! Roughness
  0.21648,                                ! Thermal Resistance {m2-K/W}
  0.9,                                    ! Thermal Absorptance
  0.7,                                    ! Solar Absorptance
  0.8;                                    ! Visible Absorptance

OS:Material,
  {2a03c2e3-2624-4f73-afd0-4e14173a8397}, ! Handle
  MAT-CC05 4 HW CONCRETE,                 ! Name
  Rough,                                  ! Roughness
  0.1016,                                 ! Thickness {m}
  1.311,                                  ! Conductivity {W/m-K}
  2240,                                   ! Density {kg/m3}
  836.8,                                  ! Specific Heat {J/kg-K}
  0.9,                                    ! Thermal Absorptance
  0.7,                                    ! Solar Absorptance
  0.7;                                    ! Visible Absorptance

OS:ComponentCost:LineItem,
  {a075cad9-5f8b-432d-a6d8-dd9a4924afd9}, ! Handle
  90.1-2004 Nonres 4B Ext Slab Unheated - 4in Slab with Carpet, ! Name
  ,                                       ! Type
  Construction,                           ! Line Item Type
  90.1-2004 Nonres 4B Ext Slab Unheated - 4in Slab with Carpet, ! Item Name
  ,                                       ! Object End Use Key
  ,                                       ! Quantity {dimensionless}
  45.52,                                  ! Material Cost {$}
  CostPerArea;                            ! Material Cost Units

OS:Construction,
  {c761948d-138f-4e8a-8482-44c9e198cca1}, ! Handle
  90.1-2004 Nonres 4B Ext Slab Unheated - 4in Slab with Carpet, ! Name
  ,                                       ! Surface Rendering Name
  {2a03c2e3-2624-4f73-afd0-4e14173a8397}, ! Layer 1
  {2c9d3e2d-b62c-4452-99bf-aff3997613b4}; ! Layer 2

