
OS:Version,
  {11384484-07ff-4ebb-b3d3-c1d294169fb9}, ! Handle
  0.9.3;                                  ! Version Identifier

OS:Construction,
  {dcc75072-5aee-4137-89c7-cc7395e606eb}, ! Handle
  Title 24-2008 Nonres 14 Ext Wall Steel-Framed, ! Name
  ,                                       ! Surface Rendering Name
  {c423a912-74b0-44ed-992a-35c57248f15e}, ! Layer 1
  {84851ee6-2d76-40dc-a493-d3eb2dc6256a}, ! Layer 2
  {7a7f80b4-f11e-4024-95f8-ae81710f31a0}; ! Layer 3

OS:Material:NoMass,
  {c423a912-74b0-44ed-992a-35c57248f15e}, ! Handle
  MAT-SHEATH,                             ! Name
  Rough,                                  ! Roughness
  0.36256,                                ! Thermal Resistance {m2-K/W}
  0.9,                                    ! Thermal Absorptance
  0.7,                                    ! Solar Absorptance
  0.7;                                    ! Visible Absorptance

OS:Material,
  {84851ee6-2d76-40dc-a493-d3eb2dc6256a}, ! Handle
  Wall Insulation [159],                  ! Name
  MediumRough,                            ! Roughness
  0.0812,                                 ! Thickness {m}
  0.045,                                  ! Conductivity {W/m-K}
  265,                                    ! Density {kg/m3}
  836.8,                                  ! Specific Heat {J/kg-K}
  0.9,                                    ! Thermal Absorptance
  0.7,                                    ! Solar Absorptance
  0.7;                                    ! Visible Absorptance

OS:Material,
  {7a7f80b4-f11e-4024-95f8-ae81710f31a0}, ! Handle
  1/2IN Gypsum,                           ! Name
  Smooth,                                 ! Roughness
  0.01271,                                ! Thickness {m}
  0.16,                                   ! Conductivity {W/m-K}
  784.9,                                  ! Density {kg/m3}
  830,                                    ! Specific Heat {J/kg-K}
  0.9,                                    ! Thermal Absorptance
  0.92,                                   ! Solar Absorptance
  0.92;                                   ! Visible Absorptance

OS:ComponentCost:LineItem,
  {28cfdde4-d10a-4cd8-b3e8-858bfd18b871}, ! Handle
  Title 24-2008 Nonres 14 Ext Wall Steel-Framed, ! Name
  ,                                       ! Type
  Construction,                           ! Line Item Type
  Title 24-2008 Nonres 14 Ext Wall Steel-Framed, ! Item Name
  ,                                       ! Object End Use Key
  ,                                       ! Quantity {dimensionless}
  155.805,                                ! Material Cost {$}
  CostPerArea;                            ! Material Cost Units

