
OS:Version,
  {1cb4d263-c161-4014-b60d-dd2d59c5d2bd}, ! Handle
  0.9.3;                                  ! Version Identifier

OS:Construction,
  {c8b5d757-c539-4640-a446-8cd6bee83dfd}, ! Handle
  Title 24-2008 Nonres 14 Ext Wall Steel-Framed, ! Name
  ,                                       ! Surface Rendering Name
  {0361c1f3-941c-48b1-b2fc-a561d4f40bbf}, ! Layer 1
  {ffde72ff-5041-41ef-8543-a553ffd047db}, ! Layer 2
  {c22fd0db-2a4c-4408-9d79-50b09233377a}; ! Layer 3

OS:Material:NoMass,
  {0361c1f3-941c-48b1-b2fc-a561d4f40bbf}, ! Handle
  MAT-SHEATH,                             ! Name
  Rough,                                  ! Roughness
  0.36256,                                ! Thermal Resistance {m2-K/W}
  0.9,                                    ! Thermal Absorptance
  0.7,                                    ! Solar Absorptance
  0.7;                                    ! Visible Absorptance

OS:Material,
  {ffde72ff-5041-41ef-8543-a553ffd047db}, ! Handle
  Wall Insulation [159],                  ! Name
  MediumRough,                            ! Roughness
  0.0812,                                 ! Thickness {m}
  0.045,                                  ! Conductivity {W/m-K}
  265,                                    ! Density {kg/m3}
  836.8,                                  ! Specific Heat {J/kg-K}
  0.9,                                    ! Thermal Absorptance
  0.7,                                    ! Solar Absorptance
  0.7;                                    ! Visible Absorptance

OS:Material,
  {c22fd0db-2a4c-4408-9d79-50b09233377a}, ! Handle
  1/2IN Gypsum,                           ! Name
  Smooth,                                 ! Roughness
  0.01271,                                ! Thickness {m}
  0.16,                                   ! Conductivity {W/m-K}
  784.9,                                  ! Density {kg/m3}
  830,                                    ! Specific Heat {J/kg-K}
  0.9,                                    ! Thermal Absorptance
  0.92,                                   ! Solar Absorptance
  0.92;                                   ! Visible Absorptance

OS:ComponentCost:LineItem,
  {ee55618d-2ce7-467b-9306-efb48bf59ebc}, ! Handle
  Title 24-2008 Nonres 14 Ext Wall Steel-Framed, ! Name
  ,                                       ! Type
  Construction,                           ! Line Item Type
  Title 24-2008 Nonres 14 Ext Wall Steel-Framed, ! Item Name
  ,                                       ! Object End Use Key
  ,                                       ! Quantity {dimensionless}
  155.805,                                ! Material Cost {$}
  CostPerArea;                            ! Material Cost Units

OS:ComponentData,
  {5b7c0ddc-696c-4ec2-a5c8-0223fe738b8d}, ! Handle
  Component Data 1,                       ! Name
  {24802a0f-3646-4626-89b0-34ca7e32d871}, ! UUID
  {65e3c2d5-ec59-4973-83f3-3b94f39f5429}, ! Version UUID
  1363982100,                             ! Creation Timestamp
  1363982100,                             ! Version Timestamp
  {c8b5d757-c539-4640-a446-8cd6bee83dfd}, ! Name of Object 1
  {0361c1f3-941c-48b1-b2fc-a561d4f40bbf}, ! Name of Object 2
  {ffde72ff-5041-41ef-8543-a553ffd047db}, ! Name of Object 3
  {c22fd0db-2a4c-4408-9d79-50b09233377a}, ! Name of Object 4
  {ee55618d-2ce7-467b-9306-efb48bf59ebc}; ! Name of Object 5

