
OS:Version,
  {d59fd184-239f-439e-ad67-49138443b25f}, ! Handle
  0.9.3;                                  ! Version Identifier

OS:Construction,
  {4ead8626-906a-453b-9cfd-8bc1b6e171e8}, ! Handle
  90.1-1999 Nonres B16 Ext Wall Mass,     ! Name
  ,                                       ! Surface Rendering Name
  {985a1d1e-389b-4fa8-9212-044555c6294c}, ! Layer 1
  {04103922-8656-4085-9261-6979ac1885ab}, ! Layer 2
  {de8c2184-8d0e-459a-bcc7-f634d7a08dd7}, ! Layer 3
  {39e28a8f-8f0f-4cf6-aa96-168f125ddc2a}; ! Layer 4

OS:Material,
  {985a1d1e-389b-4fa8-9212-044555c6294c}, ! Handle
  1IN Stucco,                             ! Name
  Smooth,                                 ! Roughness
  0.0253,                                 ! Thickness {m}
  0.6918,                                 ! Conductivity {W/m-K}
  1858,                                   ! Density {kg/m3}
  837,                                    ! Specific Heat {J/kg-K}
  0.9,                                    ! Thermal Absorptance
  0.92,                                   ! Solar Absorptance
  0.92;                                   ! Visible Absorptance

OS:Material,
  {04103922-8656-4085-9261-6979ac1885ab}, ! Handle
  8IN Concrete HW,                        ! Name
  MediumRough,                            ! Roughness
  0.2033,                                 ! Thickness {m}
  1.7296,                                 ! Conductivity {W/m-K}
  2243,                                   ! Density {kg/m3}
  837,                                    ! Specific Heat {J/kg-K}
  0.9,                                    ! Thermal Absorptance
  0.65,                                   ! Solar Absorptance
  0.65;                                   ! Visible Absorptance

OS:Material,
  {de8c2184-8d0e-459a-bcc7-f634d7a08dd7}, ! Handle
  Wall Insulation [5],                    ! Name
  MediumRough,                            ! Roughness
  0.0453274,                              ! Thickness {m}
  0.0432,                                 ! Conductivity {W/m-K}
  91,                                     ! Density {kg/m3}
  837,                                    ! Specific Heat {J/kg-K}
  0.9,                                    ! Thermal Absorptance
  0.5,                                    ! Solar Absorptance
  0.5;                                    ! Visible Absorptance

OS:Material,
  {39e28a8f-8f0f-4cf6-aa96-168f125ddc2a}, ! Handle
  1/2IN Gypsum,                           ! Name
  Smooth,                                 ! Roughness
  0.01271,                                ! Thickness {m}
  0.16,                                   ! Conductivity {W/m-K}
  784.9,                                  ! Density {kg/m3}
  830,                                    ! Specific Heat {J/kg-K}
  0.9,                                    ! Thermal Absorptance
  0.92,                                   ! Solar Absorptance
  0.92;                                   ! Visible Absorptance

OS:ComponentCost:LineItem,
  {6ebe8e1b-0ef4-4d09-a41f-89491db22c4d}, ! Handle
  90.1-1999 Nonres B16 Ext Wall Mass,     ! Name
  ,                                       ! Type
  Construction,                           ! Line Item Type
  90.1-1999 Nonres B16 Ext Wall Mass,     ! Item Name
  ,                                       ! Object End Use Key
  ,                                       ! Quantity {dimensionless}
  61.418,                                 ! Material Cost {$}
  CostPerArea;                            ! Material Cost Units

OS:ComponentData,
  {bbb484be-28b0-43e8-92e7-3436f45180de}, ! Handle
  Component Data 1,                       ! Name
  {b84599d5-0b56-4c0b-b31e-0b7f71fc4845}, ! UUID
  {f3bea8a5-eb2d-41f9-83ef-4145c1ac79e3}, ! Version UUID
  1363981109,                             ! Creation Timestamp
  1363981109,                             ! Version Timestamp
  {4ead8626-906a-453b-9cfd-8bc1b6e171e8}, ! Name of Object 1
  {985a1d1e-389b-4fa8-9212-044555c6294c}, ! Name of Object 2
  {04103922-8656-4085-9261-6979ac1885ab}, ! Name of Object 3
  {de8c2184-8d0e-459a-bcc7-f634d7a08dd7}, ! Name of Object 4
  {39e28a8f-8f0f-4cf6-aa96-168f125ddc2a}, ! Name of Object 5
  {6ebe8e1b-0ef4-4d09-a41f-89491db22c4d}; ! Name of Object 6

