
OS:Version,
  {14aafc31-e989-4b04-8749-e27ef0a4e200}, ! Handle
  0.9.3;                                  ! Version Identifier

OS:Construction,
  {1e43506d-d360-4cc3-b258-2602a384d0f7}, ! Handle
  90.1-1999 Nonres B16 Ext Wall Mass,     ! Name
  ,                                       ! Surface Rendering Name
  {c44c5b51-38a8-484b-a055-6e2071ad75c9}, ! Layer 1
  {d0c72e14-cbcf-4d43-b9be-dce6dd0f9680}, ! Layer 2
  {918b3576-22a4-4aa4-9ff9-6fc9ebcfe55b}, ! Layer 3
  {e113393e-14dc-4091-ab9d-a24947fb59ea}; ! Layer 4

OS:Material,
  {c44c5b51-38a8-484b-a055-6e2071ad75c9}, ! Handle
  1IN Stucco,                             ! Name
  Smooth,                                 ! Roughness
  0.0253,                                 ! Thickness {m}
  0.6918,                                 ! Conductivity {W/m-K}
  1858,                                   ! Density {kg/m3}
  837,                                    ! Specific Heat {J/kg-K}
  0.9,                                    ! Thermal Absorptance
  0.92,                                   ! Solar Absorptance
  0.92;                                   ! Visible Absorptance

OS:Material,
  {d0c72e14-cbcf-4d43-b9be-dce6dd0f9680}, ! Handle
  8IN Concrete HW,                        ! Name
  MediumRough,                            ! Roughness
  0.2033,                                 ! Thickness {m}
  1.7296,                                 ! Conductivity {W/m-K}
  2243,                                   ! Density {kg/m3}
  837,                                    ! Specific Heat {J/kg-K}
  0.9,                                    ! Thermal Absorptance
  0.65,                                   ! Solar Absorptance
  0.65;                                   ! Visible Absorptance

OS:Material,
  {918b3576-22a4-4aa4-9ff9-6fc9ebcfe55b}, ! Handle
  Wall Insulation [5],                    ! Name
  MediumRough,                            ! Roughness
  0.0453274,                              ! Thickness {m}
  0.0432,                                 ! Conductivity {W/m-K}
  91,                                     ! Density {kg/m3}
  837,                                    ! Specific Heat {J/kg-K}
  0.9,                                    ! Thermal Absorptance
  0.5,                                    ! Solar Absorptance
  0.5;                                    ! Visible Absorptance

OS:Material,
  {e113393e-14dc-4091-ab9d-a24947fb59ea}, ! Handle
  1/2IN Gypsum,                           ! Name
  Smooth,                                 ! Roughness
  0.01271,                                ! Thickness {m}
  0.16,                                   ! Conductivity {W/m-K}
  784.9,                                  ! Density {kg/m3}
  830,                                    ! Specific Heat {J/kg-K}
  0.9,                                    ! Thermal Absorptance
  0.92,                                   ! Solar Absorptance
  0.92;                                   ! Visible Absorptance

OS:ComponentCost:LineItem,
  {79080d38-3936-4d6d-96a4-15171a020581}, ! Handle
  90.1-1999 Nonres B16 Ext Wall Mass,     ! Name
  ,                                       ! Type
  Construction,                           ! Line Item Type
  90.1-1999 Nonres B16 Ext Wall Mass,     ! Item Name
  ,                                       ! Object End Use Key
  ,                                       ! Quantity {dimensionless}
  61.418,                                 ! Material Cost {$}
  CostPerArea;                            ! Material Cost Units

