
OS:Version,
  {d8ec263e-35c6-4f4f-9424-a3af16c57deb}, ! Handle
  0.9.3;                                  ! Version Identifier

OS:Construction,
  {bdd958c7-c9b8-4050-b0ac-f6f9d4bc0959}, ! Handle
  90.1-2001 Res B20 Roof IEAD,            ! Name
  ,                                       ! Surface Rendering Name
  {0d2a3c56-a08b-4342-a775-c94a697ef2ba}, ! Layer 1
  {04a5dde4-d085-4d9b-9931-ca0357ff0b73}, ! Layer 2
  {8d326c42-602c-48d9-84f5-511d1ff6e293}; ! Layer 3

OS:Material,
  {0d2a3c56-a08b-4342-a775-c94a697ef2ba}, ! Handle
  Roof Membrane,                          ! Name
  VeryRough,                              ! Roughness
  0.0095,                                 ! Thickness {m}
  0.16,                                   ! Conductivity {W/m-K}
  1121.29,                                ! Density {kg/m3}
  1460,                                   ! Specific Heat {J/kg-K}
  0.9,                                    ! Thermal Absorptance
  0.7,                                    ! Solar Absorptance
  0.7;                                    ! Visible Absorptance

OS:Material,
  {04a5dde4-d085-4d9b-9931-ca0357ff0b73}, ! Handle
  Roof Insulation,                        ! Name
  MediumRough,                            ! Roughness
  0.124958,                               ! Thickness {m}
  0.049,                                  ! Conductivity {W/m-K}
  265,                                    ! Density {kg/m3}
  836.8,                                  ! Specific Heat {J/kg-K}
  0.9,                                    ! Thermal Absorptance
  0.7,                                    ! Solar Absorptance
  0.7;                                    ! Visible Absorptance

OS:Material,
  {8d326c42-602c-48d9-84f5-511d1ff6e293}, ! Handle
  Metal Decking,                          ! Name
  MediumSmooth,                           ! Roughness
  0.001524,                               ! Thickness {m}
  45.006,                                 ! Conductivity {W/m-K}
  7680,                                   ! Density {kg/m3}
  418.4,                                  ! Specific Heat {J/kg-K}
  0.9,                                    ! Thermal Absorptance
  0.7,                                    ! Solar Absorptance
  0.3;                                    ! Visible Absorptance

OS:ComponentCost:LineItem,
  {3a7d349c-3f73-411e-b113-8f8bde4a4ef4}, ! Handle
  90.1-2001 Res B20 Roof IEAD,            ! Name
  ,                                       ! Type
  Construction,                           ! Line Item Type
  90.1-2001 Res B20 Roof IEAD,            ! Item Name
  ,                                       ! Object End Use Key
  ,                                       ! Quantity {dimensionless}
  49.208,                                 ! Material Cost {$}
  CostPerArea;                            ! Material Cost Units

