
OS:Version,
  {a4a11a02-87df-40ce-860f-9f32a3f6a29e}, ! Handle
  0.9.3;                                  ! Version Identifier

OS:Construction,
  {c5e9a2cf-ef0e-4293-8c83-1c9074861a27}, ! Handle
  90.1-2001 Res B20 Roof IEAD,            ! Name
  ,                                       ! Surface Rendering Name
  {5645db13-d372-4785-a7e6-7dea3e448bd1}, ! Layer 1
  {8d153a65-ec76-4321-a6c9-684583e7e09d}, ! Layer 2
  {0bc15b4c-f2ee-47ea-b5b4-ca4e4d975728}; ! Layer 3

OS:Material,
  {5645db13-d372-4785-a7e6-7dea3e448bd1}, ! Handle
  Roof Membrane,                          ! Name
  VeryRough,                              ! Roughness
  0.0095,                                 ! Thickness {m}
  0.16,                                   ! Conductivity {W/m-K}
  1121.29,                                ! Density {kg/m3}
  1460,                                   ! Specific Heat {J/kg-K}
  0.9,                                    ! Thermal Absorptance
  0.7,                                    ! Solar Absorptance
  0.7;                                    ! Visible Absorptance

OS:Material,
  {8d153a65-ec76-4321-a6c9-684583e7e09d}, ! Handle
  Roof Insulation,                        ! Name
  MediumRough,                            ! Roughness
  0.124958,                               ! Thickness {m}
  0.049,                                  ! Conductivity {W/m-K}
  265,                                    ! Density {kg/m3}
  836.8,                                  ! Specific Heat {J/kg-K}
  0.9,                                    ! Thermal Absorptance
  0.7,                                    ! Solar Absorptance
  0.7;                                    ! Visible Absorptance

OS:Material,
  {0bc15b4c-f2ee-47ea-b5b4-ca4e4d975728}, ! Handle
  Metal Decking,                          ! Name
  MediumSmooth,                           ! Roughness
  0.001524,                               ! Thickness {m}
  45.006,                                 ! Conductivity {W/m-K}
  7680,                                   ! Density {kg/m3}
  418.4,                                  ! Specific Heat {J/kg-K}
  0.9,                                    ! Thermal Absorptance
  0.7,                                    ! Solar Absorptance
  0.3;                                    ! Visible Absorptance

OS:ComponentCost:LineItem,
  {9141eaca-96a6-4f93-95b7-bce312a5aca4}, ! Handle
  90.1-2001 Res B20 Roof IEAD,            ! Name
  ,                                       ! Type
  Construction,                           ! Line Item Type
  90.1-2001 Res B20 Roof IEAD,            ! Item Name
  ,                                       ! Object End Use Key
  ,                                       ! Quantity {dimensionless}
  49.208,                                 ! Material Cost {$}
  CostPerArea;                            ! Material Cost Units

OS:ComponentData,
  {4e112cd2-0eef-4363-800d-fc96bd4547a0}, ! Handle
  Component Data 1,                       ! Name
  {fcf1efa1-1d5b-48f4-b9a0-f5669af00b41}, ! UUID
  {e9b678fd-5e17-4416-8c4e-7f2ee17bdb6f}, ! Version UUID
  1363981572,                             ! Creation Timestamp
  1363981572,                             ! Version Timestamp
  {c5e9a2cf-ef0e-4293-8c83-1c9074861a27}, ! Name of Object 1
  {5645db13-d372-4785-a7e6-7dea3e448bd1}, ! Name of Object 2
  {8d153a65-ec76-4321-a6c9-684583e7e09d}, ! Name of Object 3
  {0bc15b4c-f2ee-47ea-b5b4-ca4e4d975728}, ! Name of Object 4
  {9141eaca-96a6-4f93-95b7-bce312a5aca4}; ! Name of Object 5

