
OS:Version,
  {449650f0-59a3-4dc0-9d47-f7f0dbc3b8dd}, ! Handle
  0.9.3;                                  ! Version Identifier

OS:Construction,
  {2f6e4a13-6c16-4838-8816-d70e33d089e9}, ! Handle
  90.1-2007 Nonres 4B Roof Metal Building, ! Name
  ,                                       ! Surface Rendering Name
  {33244b4d-b266-435a-a75f-f612dc25531e}, ! Layer 1
  {36d3beac-161b-4be3-94c9-7cf67fce1c1a}; ! Layer 2

OS:Material,
  {33244b4d-b266-435a-a75f-f612dc25531e}, ! Handle
  Metal Roofing,                          ! Name
  MediumSmooth,                           ! Roughness
  0.001524,                               ! Thickness {m}
  45.006,                                 ! Conductivity {W/m-K}
  7680,                                   ! Density {kg/m3}
  418.4,                                  ! Specific Heat {J/kg-K}
  0.9,                                    ! Thermal Absorptance
  0.7,                                    ! Solar Absorptance
  0.3;                                    ! Visible Absorptance

OS:Material,
  {36d3beac-161b-4be3-94c9-7cf67fce1c1a}, ! Handle
  Roof Insulation [15],                   ! Name
  MediumRough,                            ! Roughness
  0.123565,                               ! Thickness {m}
  0.049,                                  ! Conductivity {W/m-K}
  265,                                    ! Density {kg/m3}
  836.8,                                  ! Specific Heat {J/kg-K}
  0.9,                                    ! Thermal Absorptance
  0.7,                                    ! Solar Absorptance
  0.7;                                    ! Visible Absorptance

OS:ComponentCost:LineItem,
  {a866cd00-be55-46c2-957e-5b759f04cbe3}, ! Handle
  90.1-2007 Nonres 4B Roof Metal Building, ! Name
  ,                                       ! Type
  Construction,                           ! Line Item Type
  90.1-2007 Nonres 4B Roof Metal Building, ! Item Name
  ,                                       ! Object End Use Key
  ,                                       ! Quantity {dimensionless}
  38.21,                                  ! Material Cost {$}
  CostPerArea;                            ! Material Cost Units

