
! 
OS:Version,
  {8503bb35-3288-4176-9c41-752f3d976c4b}, !- Handle
  1.13.0;                                 !- Version Identifier


! 
OS:Material,
  {a8865e47-c84d-42f6-857d-816a1354ccd3}, !- Handle
  Aislamiento: SATE
WEBER: weber.therm placa PF 120 (0.120 m)
R: 6.0 m2K/W,                             !- Name
  MediumRough,                                 !- Roughness
  0.12,                                    !- Thickness {m}
  0.02,                                    !- Conductivity {W/m-K}
  35.0,                                    !- Density {kg/m3}
  800.0,                                    !- Specific Heat {J/kg-K}
  0.9,                                    !- Thermal Absorptance
  0.6,                                    !- Solar Absorptance
  0.6;                                    !- Visible Absorptance

