
OS:Version,
  {36888a67-a478-4800-a76d-3f9e87087163}, ! Handle
  0.9.3;                                  ! Version Identifier

OS:Construction,
  {77cc8efb-e07d-4f0a-bb29-588d44bf7a88}, ! Handle
  Title 24-2008 Nonres 12 Ext Slab Unheated - 8in Slab without Carpet, ! Name
  ,                                       ! Surface Rendering Name
  {52b4014f-1b0e-4802-b360-73b825ef6b06}; ! Layer 1

OS:Material,
  {52b4014f-1b0e-4802-b360-73b825ef6b06}, ! Handle
  MAT-CC05 8 HW CONCRETE,                 ! Name
  Rough,                                  ! Roughness
  0.20321,                                ! Thickness {m}
  1.311,                                  ! Conductivity {W/m-K}
  2240,                                   ! Density {kg/m3}
  836.8,                                  ! Specific Heat {J/kg-K}
  0.9,                                    ! Thermal Absorptance
  0.7,                                    ! Solar Absorptance
  0.7;                                    ! Visible Absorptance

OS:ComponentCost:LineItem,
  {ae44fe0b-4162-4fd2-9bb4-37b0e3e9e51c}, ! Handle
  Title 24-2008 Nonres 12 Ext Slab Unheated - 8in Slab without Carpet, ! Name
  ,                                       ! Type
  Construction,                           ! Line Item Type
  Title 24-2008 Nonres 12 Ext Slab Unheated - 8in Slab without Carpet, ! Item Name
  ,                                       ! Object End Use Key
  ,                                       ! Quantity {dimensionless}
  45.52,                                  ! Material Cost {$}
  CostPerArea;                            ! Material Cost Units

