
OS:Version,
  {e93f0b7d-e312-4807-8802-807b172ef226}, ! Handle
  0.9.3;                                  ! Version Identifier

OS:Material,
  {daff469e-9539-4f13-941d-b2248975f57f}, ! Handle
  MAT-CC05 8 HW CONCRETE,                 ! Name
  Rough,                                  ! Roughness
  0.20321,                                ! Thickness {m}
  1.311,                                  ! Conductivity {W/m-K}
  2240,                                   ! Density {kg/m3}
  836.8,                                  ! Specific Heat {J/kg-K}
  0.9,                                    ! Thermal Absorptance
  0.7,                                    ! Solar Absorptance
  0.7;                                    ! Visible Absorptance

OS:ComponentCost:LineItem,
  {d1a9e454-2a85-427a-b843-4766e4e3f0c5}, ! Handle
  90.1-1999 Res B16 Ext Slab Unheated - 8in Slab without Carpet, ! Name
  ,                                       ! Type
  Construction,                           ! Line Item Type
  90.1-1999 Res B16 Ext Slab Unheated - 8in Slab without Carpet, ! Item Name
  ,                                       ! Object End Use Key
  ,                                       ! Quantity {dimensionless}
  45.52,                                  ! Material Cost {$}
  CostPerArea;                            ! Material Cost Units

OS:Construction,
  {cb213627-71f8-4c2e-b533-14879474a752}, ! Handle
  90.1-1999 Res B16 Ext Slab Unheated - 8in Slab without Carpet, ! Name
  ,                                       ! Surface Rendering Name
  {daff469e-9539-4f13-941d-b2248975f57f}; ! Layer 1

