
OS:Version,
  {c2d9eeec-3a68-459f-b4a9-ff00494a2304}, ! Handle
  0.9.3;                                  ! Version Identifier

OS:WindowMaterial:Glazing,
  {f887ac07-ca18-4411-be34-e3f256ba23ed}, ! Handle
  Theoretical Glass [181],                ! Name
  SpectralAverage,                        ! Optical Data Type
  ,                                       ! Window Glass Spectral Data Set Name
  0.003,                                  ! Thickness {m}
  0.39038,                                ! Solar Transmittance at Normal Incidence
  0.55962,                                ! Front Side Solar Reflectance at Normal Incidence
  0.55962,                                ! Back Side Solar Reflectance at Normal Incidence
  0.507883,                               ! Visible Transmittance at Normal Incidence
  0.442117,                               ! Front Side Visible Reflectance at Normal Incidence
  0.442117,                               ! Back Side Visible Reflectance at Normal Incidence
  0,                                      ! Infrared Transmittance at Normal Incidence
  0.9,                                    ! Front Side Infrared Hemispherical Emissivity
  0.9,                                    ! Back Side Infrared Hemispherical Emissivity
  0.0564341;                              ! Conductivity {W/m-K}

OS:Construction,
  {367f5364-02a9-40df-b8a4-29c5a12086df}, ! Handle
  90.1-2007 Nonres 4B Window Metal framing entrance door, ! Name
  ,                                       ! Surface Rendering Name
  {f887ac07-ca18-4411-be34-e3f256ba23ed}; ! Layer 1

OS:ComponentCost:LineItem,
  {08484d93-cf46-4d49-b009-4d4a51a8b183}, ! Handle
  90.1-2007 Nonres 4B Window Metal framing entrance door, ! Name
  ,                                       ! Type
  Construction,                           ! Line Item Type
  90.1-2007 Nonres 4B Window Metal framing entrance door, ! Item Name
  ,                                       ! Object End Use Key
  ,                                       ! Quantity {dimensionless}
  512.02,                                 ! Material Cost {$}
  CostPerArea;                            ! Material Cost Units

