
OS:Version,
  {f4e4d751-8b46-4e76-8c8f-0d8f2ad49cdf}, ! Handle
  0.9.3;                                  ! Version Identifier

OS:Material,
  {9882f895-9652-4fdf-9a46-7dfe000ffdd2}, ! Handle
  1/2IN Gypsum,                           ! Name
  Smooth,                                 ! Roughness
  0.01271,                                ! Thickness {m}
  0.16,                                   ! Conductivity {W/m-K}
  784.9,                                  ! Density {kg/m3}
  830,                                    ! Specific Heat {J/kg-K}
  0.9,                                    ! Thermal Absorptance
  0.92,                                   ! Solar Absorptance
  0.92;                                   ! Visible Absorptance

OS:Construction,
  {66f97e20-909c-43cb-872d-392cdb59b98d}, ! Handle
  AEDG-SmOffice 1A Ext Wall Wood-Framed and Other, ! Name
  ,                                       ! Surface Rendering Name
  {08474172-1625-4567-9937-1b31cc588396}, ! Layer 1
  {d4ddf8db-b6e9-41e3-8653-514fd247470c}, ! Layer 2
  {9882f895-9652-4fdf-9a46-7dfe000ffdd2}; ! Layer 3

OS:Material,
  {08474172-1625-4567-9937-1b31cc588396}, ! Handle
  Wood Siding,                            ! Name
  MediumSmooth,                           ! Roughness
  0.01,                                   ! Thickness {m}
  0.11,                                   ! Conductivity {W/m-K}
  544.62,                                 ! Density {kg/m3}
  1210,                                   ! Specific Heat {J/kg-K}
  0.9,                                    ! Thermal Absorptance
  0.78,                                   ! Solar Absorptance
  0.78;                                   ! Visible Absorptance

OS:Material,
  {d4ddf8db-b6e9-41e3-8653-514fd247470c}, ! Handle
  Wall Insulation [2],                    ! Name
  MediumRough,                            ! Roughness
  0.0746874,                              ! Thickness {m}
  0.045,                                  ! Conductivity {W/m-K}
  265,                                    ! Density {kg/m3}
  836.8,                                  ! Specific Heat {J/kg-K}
  0.9,                                    ! Thermal Absorptance
  0.7,                                    ! Solar Absorptance
  0.7;                                    ! Visible Absorptance

OS:ComponentCost:LineItem,
  {71659ab6-1cb2-4215-8bdf-cc3ec5eecdce}, ! Handle
  AEDG-SmOffice 1A Ext Wall Wood-Framed and Other, ! Name
  ,                                       ! Type
  Construction,                           ! Line Item Type
  AEDG-SmOffice 1A Ext Wall Wood-Framed and Other, ! Item Name
  ,                                       ! Object End Use Key
  ,                                       ! Quantity {dimensionless}
  73.056,                                 ! Material Cost {$}
  CostPerArea;                            ! Material Cost Units

