
OS:Version,
  {c797a49e-f851-4f7e-aee8-a92c9b649e71}, ! Handle
  0.9.3;                                  ! Version Identifier

OS:Construction,
  {0fa7e925-f3c1-4555-bd91-fa919f4eb60d}, ! Handle
  Title 24-2008 Nonres 1 Roof Metal Building, ! Name
  ,                                       ! Surface Rendering Name
  {81bb40f3-c4fb-4b4c-8ce9-a0c1e01b045f}, ! Layer 1
  {41de325d-c0e1-43c5-ad67-207a6ef8e454}; ! Layer 2

OS:Material,
  {81bb40f3-c4fb-4b4c-8ce9-a0c1e01b045f}, ! Handle
  Metal Roofing [1],                      ! Name
  MediumSmooth,                           ! Roughness
  0.001524,                               ! Thickness {m}
  45.006,                                 ! Conductivity {W/m-K}
  7680,                                   ! Density {kg/m3}
  418.4,                                  ! Specific Heat {J/kg-K}
  0.9,                                    ! Thermal Absorptance
  0.7,                                    ! Solar Absorptance
  0.85;                                   ! Visible Absorptance

OS:Material,
  {41de325d-c0e1-43c5-ad67-207a6ef8e454}, ! Handle
  Roof Insulation [15],                   ! Name
  MediumRough,                            ! Roughness
  0.123565,                               ! Thickness {m}
  0.049,                                  ! Conductivity {W/m-K}
  265,                                    ! Density {kg/m3}
  836.8,                                  ! Specific Heat {J/kg-K}
  0.9,                                    ! Thermal Absorptance
  0.7,                                    ! Solar Absorptance
  0.7;                                    ! Visible Absorptance

OS:ComponentCost:LineItem,
  {a2eaf64b-9dec-4d99-ab63-b43b7bd74550}, ! Handle
  Title 24-2008 Nonres 1 Roof Metal Building, ! Name
  ,                                       ! Type
  Construction,                           ! Line Item Type
  Title 24-2008 Nonres 1 Roof Metal Building, ! Item Name
  ,                                       ! Object End Use Key
  ,                                       ! Quantity {dimensionless}
  38.21,                                  ! Material Cost {$}
  CostPerArea;                            ! Material Cost Units

