
OS:Version,
  {8c57ac11-b9d2-4dfb-84f5-e0796aee19b4}, ! Handle
  0.9.3;                                  ! Version Identifier

OS:Construction,
  {7f82ddc0-7511-4229-b536-cd5b4240a105}, ! Handle
  90.1-1999 Nonres B4 Roof IEAD,          ! Name
  ,                                       ! Surface Rendering Name
  {88c5ff7a-1968-4e92-9b22-45ebc1500d5c}, ! Layer 1
  {87b3f1b1-ebc4-485e-8fde-d67cb372381a}, ! Layer 2
  {14902736-9d93-4402-a48e-9715efe45d1c}; ! Layer 3

OS:Material,
  {88c5ff7a-1968-4e92-9b22-45ebc1500d5c}, ! Handle
  Roof Membrane,                          ! Name
  VeryRough,                              ! Roughness
  0.0095,                                 ! Thickness {m}
  0.16,                                   ! Conductivity {W/m-K}
  1121.29,                                ! Density {kg/m3}
  1460,                                   ! Specific Heat {J/kg-K}
  0.9,                                    ! Thermal Absorptance
  0.7,                                    ! Solar Absorptance
  0.7;                                    ! Visible Absorptance

OS:Material,
  {87b3f1b1-ebc4-485e-8fde-d67cb372381a}, ! Handle
  Roof Insulation [3],                    ! Name
  MediumRough,                            ! Roughness
  0.0806842,                              ! Thickness {m}
  0.049,                                  ! Conductivity {W/m-K}
  265,                                    ! Density {kg/m3}
  836.8,                                  ! Specific Heat {J/kg-K}
  0.9,                                    ! Thermal Absorptance
  0.7,                                    ! Solar Absorptance
  0.7;                                    ! Visible Absorptance

OS:Material,
  {14902736-9d93-4402-a48e-9715efe45d1c}, ! Handle
  Metal Decking,                          ! Name
  MediumSmooth,                           ! Roughness
  0.001524,                               ! Thickness {m}
  45.006,                                 ! Conductivity {W/m-K}
  7680,                                   ! Density {kg/m3}
  418.4,                                  ! Specific Heat {J/kg-K}
  0.9,                                    ! Thermal Absorptance
  0.7,                                    ! Solar Absorptance
  0.3;                                    ! Visible Absorptance

OS:ComponentCost:LineItem,
  {66854528-e0dd-43ff-96d5-3280d9300d53}, ! Handle
  90.1-1999 Nonres B4 Roof IEAD,          ! Name
  ,                                       ! Type
  Construction,                           ! Line Item Type
  90.1-1999 Nonres B4 Roof IEAD,          ! Item Name
  ,                                       ! Object End Use Key
  ,                                       ! Quantity {dimensionless}
  45.318,                                 ! Material Cost {$}
  CostPerArea;                            ! Material Cost Units

OS:ComponentData,
  {57739c0b-6553-4091-912c-a9b52f6b53d3}, ! Handle
  Component Data 1,                       ! Name
  {8e9e6de4-aadc-4145-85f5-fe1e251b4d22}, ! UUID
  {259bb244-1fda-479f-aa1b-5816a051601e}, ! Version UUID
  1363981051,                             ! Creation Timestamp
  1363981051,                             ! Version Timestamp
  {7f82ddc0-7511-4229-b536-cd5b4240a105}, ! Name of Object 1
  {88c5ff7a-1968-4e92-9b22-45ebc1500d5c}, ! Name of Object 2
  {87b3f1b1-ebc4-485e-8fde-d67cb372381a}, ! Name of Object 3
  {14902736-9d93-4402-a48e-9715efe45d1c}, ! Name of Object 4
  {66854528-e0dd-43ff-96d5-3280d9300d53}; ! Name of Object 5

