
OS:Version,
  {28b557d6-8004-4d35-b704-252176439d06}, ! Handle
  0.9.3;                                  ! Version Identifier

OS:Material,
  {c2652873-9bf2-4290-8b60-d1ef53ee3407}, ! Handle
  Roof Membrane,                          ! Name
  VeryRough,                              ! Roughness
  0.0095,                                 ! Thickness {m}
  0.16,                                   ! Conductivity {W/m-K}
  1121.29,                                ! Density {kg/m3}
  1460,                                   ! Specific Heat {J/kg-K}
  0.9,                                    ! Thermal Absorptance
  0.7,                                    ! Solar Absorptance
  0.7;                                    ! Visible Absorptance

OS:Material,
  {3d735fb6-399b-4d8e-beb5-25a7e5891920}, ! Handle
  Metal Decking,                          ! Name
  MediumSmooth,                           ! Roughness
  0.001524,                               ! Thickness {m}
  45.006,                                 ! Conductivity {W/m-K}
  7680,                                   ! Density {kg/m3}
  418.4,                                  ! Specific Heat {J/kg-K}
  0.9,                                    ! Thermal Absorptance
  0.7,                                    ! Solar Absorptance
  0.3;                                    ! Visible Absorptance

OS:Construction,
  {4179e77d-040d-4ff1-9413-d5e92f2e3339}, ! Handle
  90.1-1999 Nonres B4 Roof IEAD,          ! Name
  ,                                       ! Surface Rendering Name
  {c2652873-9bf2-4290-8b60-d1ef53ee3407}, ! Layer 1
  {f048ca08-46e9-4065-bd1d-0ac90a8a4f6c}, ! Layer 2
  {3d735fb6-399b-4d8e-beb5-25a7e5891920}; ! Layer 3

OS:Material,
  {f048ca08-46e9-4065-bd1d-0ac90a8a4f6c}, ! Handle
  Roof Insulation [3],                    ! Name
  MediumRough,                            ! Roughness
  0.0806842,                              ! Thickness {m}
  0.049,                                  ! Conductivity {W/m-K}
  265,                                    ! Density {kg/m3}
  836.8,                                  ! Specific Heat {J/kg-K}
  0.9,                                    ! Thermal Absorptance
  0.7,                                    ! Solar Absorptance
  0.7;                                    ! Visible Absorptance

OS:ComponentCost:LineItem,
  {0dc5d2ec-84cd-4a66-aa7e-03db2ab47ee7}, ! Handle
  90.1-1999 Nonres B4 Roof IEAD,          ! Name
  ,                                       ! Type
  Construction,                           ! Line Item Type
  90.1-1999 Nonres B4 Roof IEAD,          ! Item Name
  ,                                       ! Object End Use Key
  ,                                       ! Quantity {dimensionless}
  45.318,                                 ! Material Cost {$}
  CostPerArea;                            ! Material Cost Units

