
OS:Version,
  {8e9a328b-9481-440d-b482-44dcc4101932}, ! Handle
  0.9.3;                                  ! Version Identifier

OS:Construction,
  {33221cdf-b222-404c-8162-fe625025bf02}, ! Handle
  90.1-2007 Nonres 2A Skylight without Curb, ! Name
  ,                                       ! Surface Rendering Name
  {55fc5336-f667-4009-b00a-357790999f1e}; ! Layer 1

OS:WindowMaterial:Glazing,
  {55fc5336-f667-4009-b00a-357790999f1e}, ! Handle
  Theoretical Glass [168],                ! Name
  SpectralAverage,                        ! Optical Data Type
  ,                                       ! Window Glass Spectral Data Set Name
  0.003,                                  ! Thickness {m}
  0.346104,                               ! Solar Transmittance at Normal Incidence
  0.603896,                               ! Front Side Solar Reflectance at Normal Incidence
  0.603896,                               ! Back Side Solar Reflectance at Normal Incidence
  0.457336,                               ! Visible Transmittance at Normal Incidence
  0.492664,                               ! Front Side Visible Reflectance at Normal Incidence
  0.492664,                               ! Back Side Visible Reflectance at Normal Incidence
  0,                                      ! Infrared Transmittance at Normal Incidence
  0.999,                                  ! Front Side Infrared Hemispherical Emissivity
  0.999,                                  ! Back Side Infrared Hemispherical Emissivity
  296.427;                                ! Conductivity {W/m-K}

OS:ComponentCost:LineItem,
  {c80e3a3d-ff82-478b-813e-6b335c363fe6}, ! Handle
  90.1-2007 Nonres 2A Skylight without Curb, ! Name
  ,                                       ! Type
  Construction,                           ! Line Item Type
  90.1-2007 Nonres 2A Skylight without Curb, ! Item Name
  ,                                       ! Object End Use Key
  ,                                       ! Quantity {dimensionless}
  498.248,                                ! Material Cost {$}
  CostPerArea;                            ! Material Cost Units

OS:ComponentData,
  {44cb04fb-c792-4335-a591-2e44c22fb957}, ! Handle
  Component Data 1,                       ! Name
  {e350cf93-8be1-4a8e-adcc-0664d2d1f91b}, ! UUID
  {608d8edd-d52a-4f1b-91f5-ccd36b71e241}, ! Version UUID
  1363981793,                             ! Creation Timestamp
  1363981793,                             ! Version Timestamp
  {33221cdf-b222-404c-8162-fe625025bf02}, ! Name of Object 1
  {55fc5336-f667-4009-b00a-357790999f1e}, ! Name of Object 2
  {c80e3a3d-ff82-478b-813e-6b335c363fe6}; ! Name of Object 3

