
OS:Version,
  {50097fd1-4776-4829-bded-caa25efa6663}, ! Handle
  0.9.3;                                  ! Version Identifier

OS:ComponentCost:LineItem,
  {e5d3cef3-0426-474c-ba12-acc9cb3c13a2}, ! Handle
  90.1-2007 Nonres 2A Skylight without Curb, ! Name
  ,                                       ! Type
  Construction,                           ! Line Item Type
  90.1-2007 Nonres 2A Skylight without Curb, ! Item Name
  ,                                       ! Object End Use Key
  ,                                       ! Quantity {dimensionless}
  498.248,                                ! Material Cost {$}
  CostPerArea;                            ! Material Cost Units

OS:Construction,
  {ba4e62e0-7417-472b-bf54-f4a6f4a6b9ab}, ! Handle
  90.1-2007 Nonres 2A Skylight without Curb, ! Name
  ,                                       ! Surface Rendering Name
  {4669e296-1683-40fc-9aee-d93f511aeab1}; ! Layer 1

OS:WindowMaterial:Glazing,
  {4669e296-1683-40fc-9aee-d93f511aeab1}, ! Handle
  Theoretical Glass [168],                ! Name
  SpectralAverage,                        ! Optical Data Type
  ,                                       ! Window Glass Spectral Data Set Name
  0.003,                                  ! Thickness {m}
  0.346104,                               ! Solar Transmittance at Normal Incidence
  0.603896,                               ! Front Side Solar Reflectance at Normal Incidence
  0.603896,                               ! Back Side Solar Reflectance at Normal Incidence
  0.457336,                               ! Visible Transmittance at Normal Incidence
  0.492664,                               ! Front Side Visible Reflectance at Normal Incidence
  0.492664,                               ! Back Side Visible Reflectance at Normal Incidence
  0,                                      ! Infrared Transmittance at Normal Incidence
  0.999,                                  ! Front Side Infrared Hemispherical Emissivity
  0.999,                                  ! Back Side Infrared Hemispherical Emissivity
  296.427;                                ! Conductivity {W/m-K}

