
OS:Version,
  {7cde94af-04aa-4330-86d9-dbec281d56ee}, ! Handle
  0.9.3;                                  ! Version Identifier

OS:ComponentCost:LineItem,
  {178b0f0b-cb57-4f19-910b-bc974416aa69}, ! Handle
  90.1 Windows Window Fixed 3651 Vnl-Clr-Ins-V54-Ins-Clr, ! Name
  ,                                       ! Type
  Construction,                           ! Line Item Type
  90.1 Windows Window Fixed 3651 Vnl-Clr-Ins-V54-Ins-Clr, ! Item Name
  ,                                       ! Object End Use Key
  ,                                       ! Quantity {dimensionless}
  0,                                      ! Material Cost {$}
  CostPerArea;                            ! Material Cost Units

OS:WindowMaterial:Glazing,
  {43589018-8119-41a0-ba05-d8073620031b}, ! Handle
  Theoretical Glass [488],                ! Name
  SpectralAverage,                        ! Optical Data Type
  ,                                       ! Window Glass Spectral Data Set Name
  0.003,                                  ! Thickness {m}
  0.268358,                               ! Solar Transmittance at Normal Incidence
  0.681642,                               ! Front Side Solar Reflectance at Normal Incidence
  0.681642,                               ! Back Side Solar Reflectance at Normal Incidence
  0.390045,                               ! Visible Transmittance at Normal Incidence
  0.559955,                               ! Front Side Visible Reflectance at Normal Incidence
  0.559955,                               ! Back Side Visible Reflectance at Normal Incidence
  0,                                      ! Infrared Transmittance at Normal Incidence
  0.9,                                    ! Front Side Infrared Hemispherical Emissivity
  0.9,                                    ! Back Side Infrared Hemispherical Emissivity
  0.0052951;                              ! Conductivity {W/m-K}

OS:Construction,
  {9aa21569-1329-4432-bdab-b2696cc1be27}, ! Handle
  90.1 Windows Window Fixed 3651 Vnl-Clr-Ins-V54-Ins-Clr, ! Name
  ,                                       ! Surface Rendering Name
  {43589018-8119-41a0-ba05-d8073620031b}; ! Layer 1

