
OS:Version,
  {3f749bc9-6ee3-4763-bc05-1d80c5868255}, ! Handle
  0.9.3;                                  ! Version Identifier

OS:Construction,
  {45217fad-fc2b-4fd8-8c4a-a56ad4f28dcc}, ! Handle
  90.1-2004 Res 6B Ext Wall Steel-Framed, ! Name
  ,                                       ! Surface Rendering Name
  {9baa73ee-48d0-4aff-878b-112f8104888b}, ! Layer 1
  {6ffe460b-b629-4eb3-8fbb-f1793dc7a114}, ! Layer 2
  {886e3932-14a5-4c91-90ae-0c3759a1bd51}; ! Layer 3

OS:Material:NoMass,
  {9baa73ee-48d0-4aff-878b-112f8104888b}, ! Handle
  MAT-SHEATH,                             ! Name
  Rough,                                  ! Roughness
  0.36256,                                ! Thermal Resistance {m2-K/W}
  0.9,                                    ! Thermal Absorptance
  0.7,                                    ! Solar Absorptance
  0.7;                                    ! Visible Absorptance

OS:Material,
  {6ffe460b-b629-4eb3-8fbb-f1793dc7a114}, ! Handle
  Wall Insulation [10],                   ! Name
  MediumRough,                            ! Roughness
  0.0971136,                              ! Thickness {m}
  0.045,                                  ! Conductivity {W/m-K}
  265,                                    ! Density {kg/m3}
  836.8,                                  ! Specific Heat {J/kg-K}
  0.9,                                    ! Thermal Absorptance
  0.7,                                    ! Solar Absorptance
  0.7;                                    ! Visible Absorptance

OS:Material,
  {886e3932-14a5-4c91-90ae-0c3759a1bd51}, ! Handle
  1/2IN Gypsum,                           ! Name
  Smooth,                                 ! Roughness
  0.01271,                                ! Thickness {m}
  0.16,                                   ! Conductivity {W/m-K}
  784.9,                                  ! Density {kg/m3}
  830,                                    ! Specific Heat {J/kg-K}
  0.9,                                    ! Thermal Absorptance
  0.92,                                   ! Solar Absorptance
  0.92;                                   ! Visible Absorptance

OS:ComponentCost:LineItem,
  {7e4350b1-73f0-4d4d-984d-a14e2c991c84}, ! Handle
  90.1-2004 Res 6B Ext Wall Steel-Framed, ! Name
  ,                                       ! Type
  Construction,                           ! Line Item Type
  90.1-2004 Res 6B Ext Wall Steel-Framed, ! Item Name
  ,                                       ! Object End Use Key
  ,                                       ! Quantity {dimensionless}
  94.657,                                 ! Material Cost {$}
  CostPerArea;                            ! Material Cost Units

OS:ComponentData,
  {54346b93-dc4c-4469-85f8-77f57d23cbe6}, ! Handle
  Component Data 1,                       ! Name
  {176f49e8-3f5b-48db-80d0-b8aa6968ff6f}, ! UUID
  {d1f309ea-aa37-44a0-8ef1-303ec321be51}, ! Version UUID
  1363981753,                             ! Creation Timestamp
  1363981753,                             ! Version Timestamp
  {45217fad-fc2b-4fd8-8c4a-a56ad4f28dcc}, ! Name of Object 1
  {9baa73ee-48d0-4aff-878b-112f8104888b}, ! Name of Object 2
  {6ffe460b-b629-4eb3-8fbb-f1793dc7a114}, ! Name of Object 3
  {886e3932-14a5-4c91-90ae-0c3759a1bd51}, ! Name of Object 4
  {7e4350b1-73f0-4d4d-984d-a14e2c991c84}; ! Name of Object 5

