
OS:Version,
  {534f3633-8131-471c-aac3-e8f2c122b4c9}, ! Handle
  0.9.3;                                  ! Version Identifier

OS:WindowMaterial:Glazing,
  {51185110-5fe5-4a43-916a-37167a348845}, ! Handle
  Theoretical Glass [589],                ! Name
  SpectralAverage,                        ! Optical Data Type
  ,                                       ! Window Glass Spectral Data Set Name
  0.003,                                  ! Thickness {m}
  0.525237,                               ! Solar Transmittance at Normal Incidence
  0.424763,                               ! Front Side Solar Reflectance at Normal Incidence
  0.424763,                               ! Back Side Solar Reflectance at Normal Incidence
  0.59013,                                ! Visible Transmittance at Normal Incidence
  0.35987,                                ! Front Side Visible Reflectance at Normal Incidence
  0.35987,                                ! Back Side Visible Reflectance at Normal Incidence
  0,                                      ! Infrared Transmittance at Normal Incidence
  0.9,                                    ! Front Side Infrared Hemispherical Emissivity
  0.9,                                    ! Back Side Infrared Hemispherical Emissivity
  0.00956703;                             ! Conductivity {W/m-K}

OS:ComponentCost:LineItem,
  {051b1b09-fdbb-4d5b-9a59-80e57d97b034}, ! Handle
  90.1 Windows Window Fixed 2550 Vnl-ClrPye-Std-ClrPye, ! Name
  ,                                       ! Type
  Construction,                           ! Line Item Type
  90.1 Windows Window Fixed 2550 Vnl-ClrPye-Std-ClrPye, ! Item Name
  ,                                       ! Object End Use Key
  ,                                       ! Quantity {dimensionless}
  0,                                      ! Material Cost {$}
  CostPerArea;                            ! Material Cost Units

OS:Construction,
  {1fb8dada-9f5c-4b77-8020-df2834b1942b}, ! Handle
  90.1 Windows Window Fixed 2550 Vnl-ClrPye-Std-ClrPye, ! Name
  ,                                       ! Surface Rendering Name
  {51185110-5fe5-4a43-916a-37167a348845}; ! Layer 1

