
OS:Version,
  {bfcb7791-83b5-4693-bba0-6d2000ad2ca1}, ! Handle
  0.9.3;                                  ! Version Identifier

OS:Material,
  {93413071-6cd7-4089-80ba-20079e3886a6}, ! Handle
  Wall Insulation [2],                    ! Name
  MediumRough,                            ! Roughness
  0.0746874,                              ! Thickness {m}
  0.045,                                  ! Conductivity {W/m-K}
  265,                                    ! Density {kg/m3}
  836.8,                                  ! Specific Heat {J/kg-K}
  0.9,                                    ! Thermal Absorptance
  0.7,                                    ! Solar Absorptance
  0.7;                                    ! Visible Absorptance

OS:Material,
  {c85fc33b-ff10-4270-a247-54a86283c36e}, ! Handle
  1/2IN Gypsum,                           ! Name
  Smooth,                                 ! Roughness
  0.01271,                                ! Thickness {m}
  0.16,                                   ! Conductivity {W/m-K}
  784.9,                                  ! Density {kg/m3}
  830,                                    ! Specific Heat {J/kg-K}
  0.9,                                    ! Thermal Absorptance
  0.92,                                   ! Solar Absorptance
  0.92;                                   ! Visible Absorptance

OS:ComponentCost:LineItem,
  {6c904e84-ce75-4b29-851a-e2b2b705a50e}, ! Handle
  90.1-2001 Nonres B15 Ext Wall Wood-Framed and Other, ! Name
  ,                                       ! Type
  Construction,                           ! Line Item Type
  90.1-2001 Nonres B15 Ext Wall Wood-Framed and Other, ! Item Name
  ,                                       ! Object End Use Key
  ,                                       ! Quantity {dimensionless}
  73.056,                                 ! Material Cost {$}
  CostPerArea;                            ! Material Cost Units

OS:Material,
  {a77ecfd5-1e04-41fe-ac0f-c53cd6765478}, ! Handle
  Wood Siding,                            ! Name
  MediumSmooth,                           ! Roughness
  0.01,                                   ! Thickness {m}
  0.11,                                   ! Conductivity {W/m-K}
  544.62,                                 ! Density {kg/m3}
  1210,                                   ! Specific Heat {J/kg-K}
  0.9,                                    ! Thermal Absorptance
  0.78,                                   ! Solar Absorptance
  0.78;                                   ! Visible Absorptance

OS:Construction,
  {d81a7a54-7f74-47f4-b5e7-de4e21809874}, ! Handle
  90.1-2001 Nonres B15 Ext Wall Wood-Framed and Other, ! Name
  ,                                       ! Surface Rendering Name
  {a77ecfd5-1e04-41fe-ac0f-c53cd6765478}, ! Layer 1
  {93413071-6cd7-4089-80ba-20079e3886a6}, ! Layer 2
  {c85fc33b-ff10-4270-a247-54a86283c36e}; ! Layer 3

