
OS:Version,
  {afb8ce0a-2e67-4eb7-b840-a155f93fdda1}, ! Handle
  0.9.3;                                  ! Version Identifier

OS:Construction,
  {5ffb1197-b518-4edf-8777-784cefe95a3b}, ! Handle
  90.1-2001 Nonres B9 Skylight without Curb, ! Name
  ,                                       ! Surface Rendering Name
  {4a319269-0b79-4b50-affc-d874b6560da7}; ! Layer 1

OS:WindowMaterial:Glazing,
  {4a319269-0b79-4b50-affc-d874b6560da7}, ! Handle
  Theoretical Glass [12],                 ! Name
  SpectralAverage,                        ! Optical Data Type
  ,                                       ! Window Glass Spectral Data Set Name
  0.003,                                  ! Thickness {m}
  0.595954,                               ! Solar Transmittance at Normal Incidence
  0.354046,                               ! Front Side Solar Reflectance at Normal Incidence
  0.354046,                               ! Back Side Solar Reflectance at Normal Incidence
  0.671296,                               ! Visible Transmittance at Normal Incidence
  0.278704,                               ! Front Side Visible Reflectance at Normal Incidence
  0.278704,                               ! Back Side Visible Reflectance at Normal Incidence
  0,                                      ! Infrared Transmittance at Normal Incidence
  0.999,                                  ! Front Side Infrared Hemispherical Emissivity
  0.999,                                  ! Back Side Infrared Hemispherical Emissivity
  299.383;                                ! Conductivity {W/m-K}

OS:ComponentCost:LineItem,
  {9df88197-0c2b-4531-b600-3baf18080f38}, ! Handle
  90.1-2001 Nonres B9 Skylight without Curb, ! Name
  ,                                       ! Type
  Construction,                           ! Line Item Type
  90.1-2001 Nonres B9 Skylight without Curb, ! Item Name
  ,                                       ! Object End Use Key
  ,                                       ! Quantity {dimensionless}
  459.189,                                ! Material Cost {$}
  CostPerArea;                            ! Material Cost Units

