
OS:Version,
  {8fdf40db-1549-4fa7-8e1f-651b869c8fe6}, ! Handle
  0.9.3;                                  ! Version Identifier

OS:Construction,
  {5bbdf14e-c661-4c0e-9db2-79bdc72a20d6}, ! Handle
  90.1-2001 Res B5 Ext Wall Metal Building, ! Name
  ,                                       ! Surface Rendering Name
  {e965f407-b553-42fd-829b-9a220ca6ab18}, ! Layer 1
  {214b5ab6-c471-40da-bbf9-595486e968bb}, ! Layer 2
  {e46d31c7-f8fa-447d-b607-96af0d848767}; ! Layer 3

OS:Material,
  {e965f407-b553-42fd-829b-9a220ca6ab18}, ! Handle
  Metal Siding,                           ! Name
  Smooth,                                 ! Roughness
  0.0015,                                 ! Thickness {m}
  44.96,                                  ! Conductivity {W/m-K}
  7688.86,                                ! Density {kg/m3}
  410,                                    ! Specific Heat {J/kg-K}
  0.9,                                    ! Thermal Absorptance
  0.2,                                    ! Solar Absorptance
  0.2;                                    ! Visible Absorptance

OS:Material,
  {214b5ab6-c471-40da-bbf9-595486e968bb}, ! Handle
  Wall Insulation,                        ! Name
  MediumRough,                            ! Roughness
  0.0598725,                              ! Thickness {m}
  0.045,                                  ! Conductivity {W/m-K}
  265,                                    ! Density {kg/m3}
  836.8,                                  ! Specific Heat {J/kg-K}
  0.9,                                    ! Thermal Absorptance
  0.7,                                    ! Solar Absorptance
  0.7;                                    ! Visible Absorptance

OS:Material,
  {e46d31c7-f8fa-447d-b607-96af0d848767}, ! Handle
  1/2IN Gypsum,                           ! Name
  Smooth,                                 ! Roughness
  0.01271,                                ! Thickness {m}
  0.16,                                   ! Conductivity {W/m-K}
  784.9,                                  ! Density {kg/m3}
  830,                                    ! Specific Heat {J/kg-K}
  0.9,                                    ! Thermal Absorptance
  0.92,                                   ! Solar Absorptance
  0.92;                                   ! Visible Absorptance

OS:ComponentCost:LineItem,
  {de6bf882-0a92-4ae9-b2c5-4a58e3f8d6a4}, ! Handle
  90.1-2001 Res B5 Ext Wall Metal Building, ! Name
  ,                                       ! Type
  Construction,                           ! Line Item Type
  90.1-2001 Res B5 Ext Wall Metal Building, ! Item Name
  ,                                       ! Object End Use Key
  ,                                       ! Quantity {dimensionless}
  98.78,                                  ! Material Cost {$}
  CostPerArea;                            ! Material Cost Units

