
OS:Version,
  {ea807112-96a7-4e22-837d-626c600bbb99}, ! Handle
  0.9.3;                                  ! Version Identifier

OS:ComponentCost:LineItem,
  {6e27ab50-8343-4dfc-9ee3-5f310cc69dcc}, ! Handle
  90.1-2001 Nonres B8 Roof IEAD,          ! Name
  ,                                       ! Type
  Construction,                           ! Line Item Type
  90.1-2001 Nonres B8 Roof IEAD,          ! Item Name
  ,                                       ! Object End Use Key
  ,                                       ! Quantity {dimensionless}
  49.208,                                 ! Material Cost {$}
  CostPerArea;                            ! Material Cost Units

OS:Material,
  {a19c2c6c-2282-41c2-aa94-6744efc581a2}, ! Handle
  Roof Membrane,                          ! Name
  VeryRough,                              ! Roughness
  0.0095,                                 ! Thickness {m}
  0.16,                                   ! Conductivity {W/m-K}
  1121.29,                                ! Density {kg/m3}
  1460,                                   ! Specific Heat {J/kg-K}
  0.9,                                    ! Thermal Absorptance
  0.7,                                    ! Solar Absorptance
  0.7;                                    ! Visible Absorptance

OS:Material,
  {b63fc964-babd-4c72-87dd-73e2a5ca524c}, ! Handle
  Roof Insulation,                        ! Name
  MediumRough,                            ! Roughness
  0.124958,                               ! Thickness {m}
  0.049,                                  ! Conductivity {W/m-K}
  265,                                    ! Density {kg/m3}
  836.8,                                  ! Specific Heat {J/kg-K}
  0.9,                                    ! Thermal Absorptance
  0.7,                                    ! Solar Absorptance
  0.7;                                    ! Visible Absorptance

OS:Construction,
  {6d1d27f3-9c56-4044-b0ec-c91fcefbad2d}, ! Handle
  90.1-2001 Nonres B8 Roof IEAD,          ! Name
  ,                                       ! Surface Rendering Name
  {a19c2c6c-2282-41c2-aa94-6744efc581a2}, ! Layer 1
  {b63fc964-babd-4c72-87dd-73e2a5ca524c}, ! Layer 2
  {a14d7bc4-1a42-4af8-9a21-14f43e5e034c}; ! Layer 3

OS:Material,
  {a14d7bc4-1a42-4af8-9a21-14f43e5e034c}, ! Handle
  Metal Decking,                          ! Name
  MediumSmooth,                           ! Roughness
  0.001524,                               ! Thickness {m}
  45.006,                                 ! Conductivity {W/m-K}
  7680,                                   ! Density {kg/m3}
  418.4,                                  ! Specific Heat {J/kg-K}
  0.9,                                    ! Thermal Absorptance
  0.7,                                    ! Solar Absorptance
  0.3;                                    ! Visible Absorptance

