
OS:Version,
  {33dda2cb-860d-473f-b77f-1498bbfc71c9}, ! Handle
  0.9.3;                                  ! Version Identifier

OS:ComponentCost:LineItem,
  {b88a3dca-65c8-420b-8acc-611be83b83f8}, ! Handle
  90.1-2001 Res B3 Ext Wall Steel-Framed, ! Name
  ,                                       ! Type
  Construction,                           ! Line Item Type
  90.1-2001 Res B3 Ext Wall Steel-Framed, ! Item Name
  ,                                       ! Object End Use Key
  ,                                       ! Quantity {dimensionless}
  87.08,                                  ! Material Cost {$}
  CostPerArea;                            ! Material Cost Units

OS:Material,
  {31a2935e-5f43-4519-9f8e-8ef1c113bfca}, ! Handle
  1/2IN Gypsum,                           ! Name
  Smooth,                                 ! Roughness
  0.01271,                                ! Thickness {m}
  0.16,                                   ! Conductivity {W/m-K}
  784.9,                                  ! Density {kg/m3}
  830,                                    ! Specific Heat {J/kg-K}
  0.9,                                    ! Thermal Absorptance
  0.92,                                   ! Solar Absorptance
  0.92;                                   ! Visible Absorptance

OS:Material,
  {68cf2597-e483-412a-a78c-10bb10119f15}, ! Handle
  Wall Insulation [1],                    ! Name
  MediumRough,                            ! Roughness
  0.0373223,                              ! Thickness {m}
  0.045,                                  ! Conductivity {W/m-K}
  265,                                    ! Density {kg/m3}
  836.8,                                  ! Specific Heat {J/kg-K}
  0.9,                                    ! Thermal Absorptance
  0.7,                                    ! Solar Absorptance
  0.7;                                    ! Visible Absorptance

OS:Material:NoMass,
  {30e0724f-0a6c-4864-957a-64a9c84073a0}, ! Handle
  MAT-SHEATH,                             ! Name
  Rough,                                  ! Roughness
  0.36256,                                ! Thermal Resistance {m2-K/W}
  0.9,                                    ! Thermal Absorptance
  0.7,                                    ! Solar Absorptance
  0.7;                                    ! Visible Absorptance

OS:Construction,
  {d54fdf58-9a22-45d4-b6df-2ec8b6b3cd45}, ! Handle
  90.1-2001 Res B3 Ext Wall Steel-Framed, ! Name
  ,                                       ! Surface Rendering Name
  {30e0724f-0a6c-4864-957a-64a9c84073a0}, ! Layer 1
  {68cf2597-e483-412a-a78c-10bb10119f15}, ! Layer 2
  {31a2935e-5f43-4519-9f8e-8ef1c113bfca}; ! Layer 3

