
OS:Version,
  {af1063dc-99a6-45e9-ba25-0e958a62c553}, ! Handle
  0.9.3;                                  ! Version Identifier

OS:Construction,
  {b6db81bf-0bb9-4db0-8af2-8ef855ba67b4}, ! Handle
  90.1-1999 Nonres B20 Roof IEAD,         ! Name
  ,                                       ! Surface Rendering Name
  {14314d0a-d106-4e5f-aee3-222cfdbcc9ac}, ! Layer 1
  {89465d8e-2a73-43c6-8bb7-665b55b4355c}, ! Layer 2
  {ed53481a-e344-4d87-ab96-51d10135a378}; ! Layer 3

OS:Material,
  {14314d0a-d106-4e5f-aee3-222cfdbcc9ac}, ! Handle
  Roof Membrane,                          ! Name
  VeryRough,                              ! Roughness
  0.0095,                                 ! Thickness {m}
  0.16,                                   ! Conductivity {W/m-K}
  1121.29,                                ! Density {kg/m3}
  1460,                                   ! Specific Heat {J/kg-K}
  0.9,                                    ! Thermal Absorptance
  0.7,                                    ! Solar Absorptance
  0.7;                                    ! Visible Absorptance

OS:Material,
  {89465d8e-2a73-43c6-8bb7-665b55b4355c}, ! Handle
  Roof Insulation,                        ! Name
  MediumRough,                            ! Roughness
  0.124958,                               ! Thickness {m}
  0.049,                                  ! Conductivity {W/m-K}
  265,                                    ! Density {kg/m3}
  836.8,                                  ! Specific Heat {J/kg-K}
  0.9,                                    ! Thermal Absorptance
  0.7,                                    ! Solar Absorptance
  0.7;                                    ! Visible Absorptance

OS:Material,
  {ed53481a-e344-4d87-ab96-51d10135a378}, ! Handle
  Metal Decking,                          ! Name
  MediumSmooth,                           ! Roughness
  0.001524,                               ! Thickness {m}
  45.006,                                 ! Conductivity {W/m-K}
  7680,                                   ! Density {kg/m3}
  418.4,                                  ! Specific Heat {J/kg-K}
  0.9,                                    ! Thermal Absorptance
  0.7,                                    ! Solar Absorptance
  0.3;                                    ! Visible Absorptance

OS:ComponentCost:LineItem,
  {1c34af8d-7b92-4830-9ed9-5e1299472951}, ! Handle
  90.1-1999 Nonres B20 Roof IEAD,         ! Name
  ,                                       ! Type
  Construction,                           ! Line Item Type
  90.1-1999 Nonres B20 Roof IEAD,         ! Item Name
  ,                                       ! Object End Use Key
  ,                                       ! Quantity {dimensionless}
  49.208,                                 ! Material Cost {$}
  CostPerArea;                            ! Material Cost Units

