
OS:Version,
  {a68bc663-4010-4b60-8819-104ab6c02e88}, ! Handle
  0.9.3;                                  ! Version Identifier

OS:ComponentCost:LineItem,
  {1f2a2cad-d003-4d51-b79e-d6e5aea78ce2}, ! Handle
  AEDG SHC Nonres 1A Window Fixed,        ! Name
  ,                                       ! Type
  Construction,                           ! Line Item Type
  AEDG SHC Nonres 1A Window Fixed,        ! Item Name
  ,                                       ! Object End Use Key
  ,                                       ! Quantity {dimensionless}
  0,                                      ! Material Cost {$}
  CostPerArea;                            ! Material Cost Units

OS:Construction,
  {27b31c83-7cfb-4d9b-9ac2-16729b81373c}, ! Handle
  AEDG SHC Nonres 1A Window Fixed,        ! Name
  ,                                       ! Surface Rendering Name
  {b08579d4-b513-4251-a47f-8c95e75e1c6c}; ! Layer 1

OS:WindowMaterial:Glazing,
  {b08579d4-b513-4251-a47f-8c95e75e1c6c}, ! Handle
  Theoretical Glass [237],                ! Name
  SpectralAverage,                        ! Optical Data Type
  ,                                       ! Window Glass Spectral Data Set Name
  0.003,                                  ! Thickness {m}
  0.241279,                               ! Solar Transmittance at Normal Incidence
  0.708721,                               ! Front Side Solar Reflectance at Normal Incidence
  0.708721,                               ! Back Side Solar Reflectance at Normal Incidence
  0.629707,                               ! Visible Transmittance at Normal Incidence
  0.320293,                               ! Front Side Visible Reflectance at Normal Incidence
  0.320293,                               ! Back Side Visible Reflectance at Normal Incidence
  0,                                      ! Infrared Transmittance at Normal Incidence
  0.9,                                    ! Front Side Infrared Hemispherical Emissivity
  0.9,                                    ! Back Side Infrared Hemispherical Emissivity
  0.0123106;                              ! Conductivity {W/m-K}

