
OS:Version,
  {44799a30-e8b3-4479-a75f-6039a3b4e23f}, ! Handle
  0.9.3;                                  ! Version Identifier

OS:ComponentCost:LineItem,
  {acf431cb-e74e-4bf3-bafc-d53d42de4d19}, ! Handle
  90.1-2001 Nonres B6 Roof Metal Building, ! Name
  ,                                       ! Type
  Construction,                           ! Line Item Type
  90.1-2001 Nonres B6 Roof Metal Building, ! Item Name
  ,                                       ! Object End Use Key
  ,                                       ! Quantity {dimensionless}
  38.206,                                 ! Material Cost {$}
  CostPerArea;                            ! Material Cost Units

OS:Material,
  {43f7cf49-c613-467d-bca9-47901f13ace1}, ! Handle
  Metal Roofing,                          ! Name
  MediumSmooth,                           ! Roughness
  0.001524,                               ! Thickness {m}
  45.006,                                 ! Conductivity {W/m-K}
  7680,                                   ! Density {kg/m3}
  418.4,                                  ! Specific Heat {J/kg-K}
  0.9,                                    ! Thermal Absorptance
  0.7,                                    ! Solar Absorptance
  0.3;                                    ! Visible Absorptance

OS:Construction,
  {7ed71592-42d9-4253-b91a-78e99e0e221a}, ! Handle
  90.1-2001 Nonres B6 Roof Metal Building, ! Name
  ,                                       ! Surface Rendering Name
  {43f7cf49-c613-467d-bca9-47901f13ace1}, ! Layer 1
  {d48906b0-0551-45b4-93e6-82e58289549e}; ! Layer 2

OS:Material,
  {d48906b0-0551-45b4-93e6-82e58289549e}, ! Handle
  Roof Insulation [1],                    ! Name
  MediumRough,                            ! Roughness
  0.123533,                               ! Thickness {m}
  0.049,                                  ! Conductivity {W/m-K}
  265,                                    ! Density {kg/m3}
  836.8,                                  ! Specific Heat {J/kg-K}
  0.9,                                    ! Thermal Absorptance
  0.7,                                    ! Solar Absorptance
  0.7;                                    ! Visible Absorptance

