
OS:Version,
  {7659dc8e-4f2c-4848-bab2-78f58e199061}, ! Handle
  0.9.3;                                  ! Version Identifier

OS:Material,
  {1623d110-0f83-40c4-9a11-9ef4efe6a2e5}, ! Handle
  8IN Concrete HW,                        ! Name
  MediumRough,                            ! Roughness
  0.2033,                                 ! Thickness {m}
  1.7296,                                 ! Conductivity {W/m-K}
  2243,                                   ! Density {kg/m3}
  837,                                    ! Specific Heat {J/kg-K}
  0.9,                                    ! Thermal Absorptance
  0.65,                                   ! Solar Absorptance
  0.65;                                   ! Visible Absorptance

OS:Material,
  {c4ef4e45-6ae6-4cd4-8a5f-8277e6bd26cf}, ! Handle
  Wall Insulation [4],                    ! Name
  MediumRough,                            ! Roughness
  0.0338606,                              ! Thickness {m}
  0.0432,                                 ! Conductivity {W/m-K}
  91,                                     ! Density {kg/m3}
  837,                                    ! Specific Heat {J/kg-K}
  0.9,                                    ! Thermal Absorptance
  0.5,                                    ! Solar Absorptance
  0.5;                                    ! Visible Absorptance

OS:ComponentCost:LineItem,
  {3fae22be-5d42-4d6a-8b5a-e0c9927efe6a}, ! Handle
  90.1-1999 Res B5 Ext Wall Mass,         ! Name
  ,                                       ! Type
  Construction,                           ! Line Item Type
  90.1-1999 Res B5 Ext Wall Mass,         ! Item Name
  ,                                       ! Object End Use Key
  ,                                       ! Quantity {dimensionless}
  58.897,                                 ! Material Cost {$}
  CostPerArea;                            ! Material Cost Units

OS:Construction,
  {441ce69c-31cb-4240-9b84-4c5d314f1df5}, ! Handle
  90.1-1999 Res B5 Ext Wall Mass,         ! Name
  ,                                       ! Surface Rendering Name
  {f2eb7d37-81ec-4e11-ac8b-5de2ab4aab57}, ! Layer 1
  {1623d110-0f83-40c4-9a11-9ef4efe6a2e5}, ! Layer 2
  {c4ef4e45-6ae6-4cd4-8a5f-8277e6bd26cf}, ! Layer 3
  {ec652839-0ce0-48a5-aedf-d6e2b4aa67c1}; ! Layer 4

OS:Material,
  {f2eb7d37-81ec-4e11-ac8b-5de2ab4aab57}, ! Handle
  1IN Stucco,                             ! Name
  Smooth,                                 ! Roughness
  0.0253,                                 ! Thickness {m}
  0.6918,                                 ! Conductivity {W/m-K}
  1858,                                   ! Density {kg/m3}
  837,                                    ! Specific Heat {J/kg-K}
  0.9,                                    ! Thermal Absorptance
  0.92,                                   ! Solar Absorptance
  0.92;                                   ! Visible Absorptance

OS:Material,
  {ec652839-0ce0-48a5-aedf-d6e2b4aa67c1}, ! Handle
  1/2IN Gypsum,                           ! Name
  Smooth,                                 ! Roughness
  0.01271,                                ! Thickness {m}
  0.16,                                   ! Conductivity {W/m-K}
  784.9,                                  ! Density {kg/m3}
  830,                                    ! Specific Heat {J/kg-K}
  0.9,                                    ! Thermal Absorptance
  0.92,                                   ! Solar Absorptance
  0.92;                                   ! Visible Absorptance

