
OS:Version,
  {5cdc86fe-acea-4429-b7e1-946da01bec2e}, ! Handle
  0.9.3;                                  ! Version Identifier

OS:ComponentCost:LineItem,
  {1093059c-1b9d-484c-8d44-60e6c9008e77}, ! Handle
  90.1-2004 Res 2A Ext Wall Steel-Framed, ! Name
  ,                                       ! Type
  Construction,                           ! Line Item Type
  90.1-2004 Res 2A Ext Wall Steel-Framed, ! Item Name
  ,                                       ! Object End Use Key
  ,                                       ! Quantity {dimensionless}
  87.08,                                  ! Material Cost {$}
  CostPerArea;                            ! Material Cost Units

OS:Construction,
  {510e693e-27b5-4a97-ae37-cd59f5c622f9}, ! Handle
  90.1-2004 Res 2A Ext Wall Steel-Framed, ! Name
  ,                                       ! Surface Rendering Name
  {0174e12f-0c6f-490b-8c50-b4c54a107d17}, ! Layer 1
  {f6bd7694-0a89-4d5a-8df6-3f2761932eb2}, ! Layer 2
  {3c643d1e-7e4e-41f1-9557-d6812950bad6}; ! Layer 3

OS:Material:NoMass,
  {0174e12f-0c6f-490b-8c50-b4c54a107d17}, ! Handle
  MAT-SHEATH,                             ! Name
  Rough,                                  ! Roughness
  0.36256,                                ! Thermal Resistance {m2-K/W}
  0.9,                                    ! Thermal Absorptance
  0.7,                                    ! Solar Absorptance
  0.7;                                    ! Visible Absorptance

OS:Material,
  {f6bd7694-0a89-4d5a-8df6-3f2761932eb2}, ! Handle
  Wall Insulation [1],                    ! Name
  MediumRough,                            ! Roughness
  0.0373223,                              ! Thickness {m}
  0.045,                                  ! Conductivity {W/m-K}
  265,                                    ! Density {kg/m3}
  836.8,                                  ! Specific Heat {J/kg-K}
  0.9,                                    ! Thermal Absorptance
  0.7,                                    ! Solar Absorptance
  0.7;                                    ! Visible Absorptance

OS:Material,
  {3c643d1e-7e4e-41f1-9557-d6812950bad6}, ! Handle
  1/2IN Gypsum,                           ! Name
  Smooth,                                 ! Roughness
  0.01271,                                ! Thickness {m}
  0.16,                                   ! Conductivity {W/m-K}
  784.9,                                  ! Density {kg/m3}
  830,                                    ! Specific Heat {J/kg-K}
  0.9,                                    ! Thermal Absorptance
  0.92,                                   ! Solar Absorptance
  0.92;                                   ! Visible Absorptance

