
OS:Version,
  {10dbc918-5282-4882-9c3a-a8c6b749ad3e}, ! Handle
  0.9.3;                                  ! Version Identifier

OS:Construction,
  {2449a1f6-9d86-41e6-8be4-535f848baff3}, ! Handle
  Title 24-2008 Nonres 7 Skylight without Curb, ! Name
  ,                                       ! Surface Rendering Name
  {6cbcd1fd-e189-455c-8217-cb5a6ca9362d}; ! Layer 1

OS:WindowMaterial:Glazing,
  {6cbcd1fd-e189-455c-8217-cb5a6ca9362d}, ! Handle
  Theoretical Glass [681],                ! Name
  SpectralAverage,                        ! Optical Data Type
  ,                                       ! Window Glass Spectral Data Set Name
  0.003,                                  ! Thickness {m}
  0.390498,                               ! Solar Transmittance at Normal Incidence
  0.559502,                               ! Front Side Solar Reflectance at Normal Incidence
  0.559502,                               ! Back Side Solar Reflectance at Normal Incidence
  0.400004,                               ! Visible Transmittance at Normal Incidence
  0.549996,                               ! Front Side Visible Reflectance at Normal Incidence
  0.549996,                               ! Back Side Visible Reflectance at Normal Incidence
  0,                                      ! Infrared Transmittance at Normal Incidence
  0.9,                                    ! Front Side Infrared Hemispherical Emissivity
  0.9,                                    ! Back Side Infrared Hemispherical Emissivity
  0.0498596;                              ! Conductivity {W/m-K}

OS:ComponentCost:LineItem,
  {e2dfc05c-9a92-4240-9df2-4f2d2a20e407}, ! Handle
  Title 24-2008 Nonres 7 Skylight without Curb, ! Name
  ,                                       ! Type
  Construction,                           ! Line Item Type
  Title 24-2008 Nonres 7 Skylight without Curb, ! Item Name
  ,                                       ! Object End Use Key
  ,                                       ! Quantity {dimensionless}
  511.59,                                 ! Material Cost {$}
  CostPerArea;                            ! Material Cost Units

OS:ComponentData,
  {d4519d9c-4a90-4528-830a-ff5083dbb3a5}, ! Handle
  Component Data 1,                       ! Name
  {5f037ac2-4eee-4da8-a427-4e491725055f}, ! UUID
  {c128d150-e623-4537-9d5c-724b6271a05f}, ! Version UUID
  1363982043,                             ! Creation Timestamp
  1363982043,                             ! Version Timestamp
  {2449a1f6-9d86-41e6-8be4-535f848baff3}, ! Name of Object 1
  {6cbcd1fd-e189-455c-8217-cb5a6ca9362d}, ! Name of Object 2
  {e2dfc05c-9a92-4240-9df2-4f2d2a20e407}; ! Name of Object 3

