
OS:Version,
  {4a24486b-464f-499b-93bc-e99bac4a405c}, ! Handle
  0.9.3;                                  ! Version Identifier

OS:WindowMaterial:Glazing,
  {41b03b54-0295-4084-825b-7f87e346437c}, ! Handle
  Theoretical Glass [681],                ! Name
  SpectralAverage,                        ! Optical Data Type
  ,                                       ! Window Glass Spectral Data Set Name
  0.003,                                  ! Thickness {m}
  0.390498,                               ! Solar Transmittance at Normal Incidence
  0.559502,                               ! Front Side Solar Reflectance at Normal Incidence
  0.559502,                               ! Back Side Solar Reflectance at Normal Incidence
  0.400004,                               ! Visible Transmittance at Normal Incidence
  0.549996,                               ! Front Side Visible Reflectance at Normal Incidence
  0.549996,                               ! Back Side Visible Reflectance at Normal Incidence
  0,                                      ! Infrared Transmittance at Normal Incidence
  0.9,                                    ! Front Side Infrared Hemispherical Emissivity
  0.9,                                    ! Back Side Infrared Hemispherical Emissivity
  0.0498596;                              ! Conductivity {W/m-K}

OS:Construction,
  {46e87e18-4913-451f-b3c5-5e220a3c58ce}, ! Handle
  Title 24-2008 Nonres 7 Skylight without Curb, ! Name
  ,                                       ! Surface Rendering Name
  {41b03b54-0295-4084-825b-7f87e346437c}; ! Layer 1

OS:ComponentCost:LineItem,
  {062d686b-6fb0-4b5f-b60f-b57693ea111c}, ! Handle
  Title 24-2008 Nonres 7 Skylight without Curb, ! Name
  ,                                       ! Type
  Construction,                           ! Line Item Type
  Title 24-2008 Nonres 7 Skylight without Curb, ! Item Name
  ,                                       ! Object End Use Key
  ,                                       ! Quantity {dimensionless}
  511.59,                                 ! Material Cost {$}
  CostPerArea;                            ! Material Cost Units

