
OS:Version,
  {b15495a4-6ace-435f-9c52-9b32a9dcf552}, ! Handle
  0.9.3;                                  ! Version Identifier

OS:Construction,
  {b5ec534e-733f-4417-8f40-85a3c67a0a10}, ! Handle
  90.1-2001 Nonres B1 Skylight without Curb, ! Name
  ,                                       ! Surface Rendering Name
  {3fd1573f-acbd-42b5-86a3-2f83a52e4094}; ! Layer 1

OS:WindowMaterial:Glazing,
  {3fd1573f-acbd-42b5-86a3-2f83a52e4094}, ! Handle
  Theoretical Glass [5],                  ! Name
  SpectralAverage,                        ! Optical Data Type
  ,                                       ! Window Glass Spectral Data Set Name
  0.003,                                  ! Thickness {m}
  0.177138,                               ! Solar Transmittance at Normal Incidence
  0.772862,                               ! Front Side Solar Reflectance at Normal Incidence
  0.772862,                               ! Back Side Solar Reflectance at Normal Incidence
  0.176052,                               ! Visible Transmittance at Normal Incidence
  0.773948,                               ! Front Side Visible Reflectance at Normal Incidence
  0.773948,                               ! Back Side Visible Reflectance at Normal Incidence
  0,                                      ! Infrared Transmittance at Normal Incidence
  0.999,                                  ! Front Side Infrared Hemispherical Emissivity
  0.999,                                  ! Back Side Infrared Hemispherical Emissivity
  299.383;                                ! Conductivity {W/m-K}

OS:ComponentCost:LineItem,
  {bde663d0-7a54-4c36-9279-1355b30a6385}, ! Handle
  90.1-2001 Nonres B1 Skylight without Curb, ! Name
  ,                                       ! Type
  Construction,                           ! Line Item Type
  90.1-2001 Nonres B1 Skylight without Curb, ! Item Name
  ,                                       ! Object End Use Key
  ,                                       ! Quantity {dimensionless}
  498.248,                                ! Material Cost {$}
  CostPerArea;                            ! Material Cost Units

OS:ComponentData,
  {ba61ca09-d2ca-4b94-b009-e2c8428e16a8}, ! Handle
  Component Data 1,                       ! Name
  {7ecb3107-82da-48d8-b1e8-3958bfde20f6}, ! UUID
  {d8b592ed-224f-4e7d-b461-ee38e0021754}, ! Version UUID
  1363981294,                             ! Creation Timestamp
  1363981294,                             ! Version Timestamp
  {b5ec534e-733f-4417-8f40-85a3c67a0a10}, ! Name of Object 1
  {3fd1573f-acbd-42b5-86a3-2f83a52e4094}, ! Name of Object 2
  {bde663d0-7a54-4c36-9279-1355b30a6385}; ! Name of Object 3

