
OS:Version,
  {47ae3477-7695-4104-aede-70a983a5b3f6}, ! Handle
  0.9.3;                                  ! Version Identifier

OS:WindowMaterial:Glazing,
  {e57ca832-a535-40e9-9eb5-40b97ebee211}, ! Handle
  Theoretical Glass [5],                  ! Name
  SpectralAverage,                        ! Optical Data Type
  ,                                       ! Window Glass Spectral Data Set Name
  0.003,                                  ! Thickness {m}
  0.177138,                               ! Solar Transmittance at Normal Incidence
  0.772862,                               ! Front Side Solar Reflectance at Normal Incidence
  0.772862,                               ! Back Side Solar Reflectance at Normal Incidence
  0.176052,                               ! Visible Transmittance at Normal Incidence
  0.773948,                               ! Front Side Visible Reflectance at Normal Incidence
  0.773948,                               ! Back Side Visible Reflectance at Normal Incidence
  0,                                      ! Infrared Transmittance at Normal Incidence
  0.999,                                  ! Front Side Infrared Hemispherical Emissivity
  0.999,                                  ! Back Side Infrared Hemispherical Emissivity
  299.383;                                ! Conductivity {W/m-K}

OS:Construction,
  {3836abfe-a8b7-40e0-bbf9-90c3ce281845}, ! Handle
  90.1-2001 Nonres B1 Skylight without Curb, ! Name
  ,                                       ! Surface Rendering Name
  {e57ca832-a535-40e9-9eb5-40b97ebee211}; ! Layer 1

OS:ComponentCost:LineItem,
  {58c067b6-4ea1-400e-895e-d43d584fe037}, ! Handle
  90.1-2001 Nonres B1 Skylight without Curb, ! Name
  ,                                       ! Type
  Construction,                           ! Line Item Type
  90.1-2001 Nonres B1 Skylight without Curb, ! Item Name
  ,                                       ! Object End Use Key
  ,                                       ! Quantity {dimensionless}
  498.248,                                ! Material Cost {$}
  CostPerArea;                            ! Material Cost Units

