
! 
OS:Version,
  {8503bb35-3288-4176-9c41-752f3d976c4b}, !- Handle
  1.13.0;                                 !- Version Identifier


! 
OS:Material,
  {35c0a847-7e79-45d9-a618-abc23a0eb1fa}, !- Handle
  Aislamiento: SATE
WEBER: weber.therm placa XPS 100 (0.100 m)
R: 2.9 m2K/W,                             !- Name
  MediumRough,                                 !- Roughness
  0.1,                                    !- Thickness {m}
  0.034,                                    !- Conductivity {W/m-K}
  30.0,                                    !- Density {kg/m3}
  800.0,                                    !- Specific Heat {J/kg-K}
  0.9,                                    !- Thermal Absorptance
  0.6,                                    !- Solar Absorptance
  0.6;                                    !- Visible Absorptance

