
OS:Version,
  {3ebad2f7-497f-4956-83d9-dd6722a16d23}, ! Handle
  0.9.3;                                  ! Version Identifier

OS:Material,
  {c32fb387-9060-482f-9729-e37880236267}, ! Handle
  Metal Siding,                           ! Name
  Smooth,                                 ! Roughness
  0.0015,                                 ! Thickness {m}
  44.96,                                  ! Conductivity {W/m-K}
  7688.86,                                ! Density {kg/m3}
  410,                                    ! Specific Heat {J/kg-K}
  0.9,                                    ! Thermal Absorptance
  0.2,                                    ! Solar Absorptance
  0.2;                                    ! Visible Absorptance

OS:Construction,
  {8d589a43-b5b7-4811-bf9e-d13fe9d4fd52}, ! Handle
  90.1-2001 Nonres B15 Ext Wall Metal Building, ! Name
  ,                                       ! Surface Rendering Name
  {c32fb387-9060-482f-9729-e37880236267}, ! Layer 1
  {0f0c39fd-2ad3-4efb-bc3f-84e576c438b5}, ! Layer 2
  {aec777df-c7bb-46d5-9dbb-40feab42d393}; ! Layer 3

OS:Material,
  {0f0c39fd-2ad3-4efb-bc3f-84e576c438b5}, ! Handle
  Wall Insulation,                        ! Name
  MediumRough,                            ! Roughness
  0.0598725,                              ! Thickness {m}
  0.045,                                  ! Conductivity {W/m-K}
  265,                                    ! Density {kg/m3}
  836.8,                                  ! Specific Heat {J/kg-K}
  0.9,                                    ! Thermal Absorptance
  0.7,                                    ! Solar Absorptance
  0.7;                                    ! Visible Absorptance

OS:Material,
  {aec777df-c7bb-46d5-9dbb-40feab42d393}, ! Handle
  1/2IN Gypsum,                           ! Name
  Smooth,                                 ! Roughness
  0.01271,                                ! Thickness {m}
  0.16,                                   ! Conductivity {W/m-K}
  784.9,                                  ! Density {kg/m3}
  830,                                    ! Specific Heat {J/kg-K}
  0.9,                                    ! Thermal Absorptance
  0.92,                                   ! Solar Absorptance
  0.92;                                   ! Visible Absorptance

OS:ComponentCost:LineItem,
  {070d77cf-ecdd-4b02-abca-3524baf7a552}, ! Handle
  90.1-2001 Nonres B15 Ext Wall Metal Building, ! Name
  ,                                       ! Type
  Construction,                           ! Line Item Type
  90.1-2001 Nonres B15 Ext Wall Metal Building, ! Item Name
  ,                                       ! Object End Use Key
  ,                                       ! Quantity {dimensionless}
  98.78,                                  ! Material Cost {$}
  CostPerArea;                            ! Material Cost Units

