
OS:Version,
  {1d047521-4f48-4226-a7d9-678930c780a6}, ! Handle
  0.9.3;                                  ! Version Identifier

OS:Material,
  {b414b09e-e9f3-45e5-bcaa-5ec021e6f240}, ! Handle
  Wall Insulation [15],                   ! Name
  MediumRough,                            ! Roughness
  0.117292,                               ! Thickness {m}
  0.045,                                  ! Conductivity {W/m-K}
  265,                                    ! Density {kg/m3}
  836.8,                                  ! Specific Heat {J/kg-K}
  0.9,                                    ! Thermal Absorptance
  0.7,                                    ! Solar Absorptance
  0.7;                                    ! Visible Absorptance

OS:ComponentCost:LineItem,
  {4e4b596f-d3b6-4715-9c5f-7b21e7d0b040}, ! Handle
  90.1-1999 Res B24 Ext Wall Steel-Framed, ! Name
  ,                                       ! Type
  Construction,                           ! Line Item Type
  90.1-1999 Res B24 Ext Wall Steel-Framed, ! Item Name
  ,                                       ! Object End Use Key
  ,                                       ! Quantity {dimensionless}
  97.384,                                 ! Material Cost {$}
  CostPerArea;                            ! Material Cost Units

OS:Material:NoMass,
  {2590433d-7653-4ae7-922c-9371c4d86a25}, ! Handle
  MAT-SHEATH,                             ! Name
  Rough,                                  ! Roughness
  0.36256,                                ! Thermal Resistance {m2-K/W}
  0.9,                                    ! Thermal Absorptance
  0.7,                                    ! Solar Absorptance
  0.7;                                    ! Visible Absorptance

OS:Construction,
  {9237dd7f-ccaf-4714-8e03-13ebd9390a87}, ! Handle
  90.1-1999 Res B24 Ext Wall Steel-Framed, ! Name
  ,                                       ! Surface Rendering Name
  {2590433d-7653-4ae7-922c-9371c4d86a25}, ! Layer 1
  {b414b09e-e9f3-45e5-bcaa-5ec021e6f240}, ! Layer 2
  {243d177e-8bbb-4d51-881d-61e0c921ad00}; ! Layer 3

OS:Material,
  {243d177e-8bbb-4d51-881d-61e0c921ad00}, ! Handle
  1/2IN Gypsum,                           ! Name
  Smooth,                                 ! Roughness
  0.01271,                                ! Thickness {m}
  0.16,                                   ! Conductivity {W/m-K}
  784.9,                                  ! Density {kg/m3}
  830,                                    ! Specific Heat {J/kg-K}
  0.9,                                    ! Thermal Absorptance
  0.92,                                   ! Solar Absorptance
  0.92;                                   ! Visible Absorptance

