
OS:Version,
  {a67c3837-894a-4883-aa85-1eddb97a1785}, ! Handle
  0.9.3;                                  ! Version Identifier

OS:Material,
  {d52aaad3-5dab-4559-90d9-5c833e436d5a}, ! Handle
  Wall Insulation [2],                    ! Name
  MediumRough,                            ! Roughness
  0.0746874,                              ! Thickness {m}
  0.045,                                  ! Conductivity {W/m-K}
  265,                                    ! Density {kg/m3}
  836.8,                                  ! Specific Heat {J/kg-K}
  0.9,                                    ! Thermal Absorptance
  0.7,                                    ! Solar Absorptance
  0.7;                                    ! Visible Absorptance

OS:Material,
  {478536bb-5901-4a73-a616-f72809d12b73}, ! Handle
  Wood Siding,                            ! Name
  MediumSmooth,                           ! Roughness
  0.01,                                   ! Thickness {m}
  0.11,                                   ! Conductivity {W/m-K}
  544.62,                                 ! Density {kg/m3}
  1210,                                   ! Specific Heat {J/kg-K}
  0.9,                                    ! Thermal Absorptance
  0.78,                                   ! Solar Absorptance
  0.78;                                   ! Visible Absorptance

OS:Material,
  {539f5251-33b3-45f8-a4c1-d5b8b6f8e3f9}, ! Handle
  1/2IN Gypsum,                           ! Name
  Smooth,                                 ! Roughness
  0.01271,                                ! Thickness {m}
  0.16,                                   ! Conductivity {W/m-K}
  784.9,                                  ! Density {kg/m3}
  830,                                    ! Specific Heat {J/kg-K}
  0.9,                                    ! Thermal Absorptance
  0.92,                                   ! Solar Absorptance
  0.92;                                   ! Visible Absorptance

OS:Construction,
  {32bc1bc7-4515-4d8a-890b-32380e6344f2}, ! Handle
  90.1-2001 Nonres B13 Ext Wall Wood-Framed and Other, ! Name
  ,                                       ! Surface Rendering Name
  {478536bb-5901-4a73-a616-f72809d12b73}, ! Layer 1
  {d52aaad3-5dab-4559-90d9-5c833e436d5a}, ! Layer 2
  {539f5251-33b3-45f8-a4c1-d5b8b6f8e3f9}; ! Layer 3

OS:ComponentCost:LineItem,
  {9468f194-1b21-4700-a090-98dc3c8e0a63}, ! Handle
  90.1-2001 Nonres B13 Ext Wall Wood-Framed and Other, ! Name
  ,                                       ! Type
  Construction,                           ! Line Item Type
  90.1-2001 Nonres B13 Ext Wall Wood-Framed and Other, ! Item Name
  ,                                       ! Object End Use Key
  ,                                       ! Quantity {dimensionless}
  73.056,                                 ! Material Cost {$}
  CostPerArea;                            ! Material Cost Units

