
OS:Version,
  {ef980e8d-85b9-456f-abc4-9808897e946e}, ! Handle
  0.9.3;                                  ! Version Identifier

OS:ComponentCost:LineItem,
  {e0d87900-6da1-4687-a7b7-ee07d7398882}, ! Handle
  AEDG-SmOffice 3A Int Wall,              ! Name
  ,                                       ! Type
  Construction,                           ! Line Item Type
  AEDG-SmOffice 3A Int Wall,              ! Item Name
  ,                                       ! Object End Use Key
  ,                                       ! Quantity {dimensionless}
  0,                                      ! Material Cost {$}
  CostPerArea;                            ! Material Cost Units

OS:Material,
  {76755f62-5a01-46b8-a7a3-dad3cf397316}, ! Handle
  GP01 1/2 GYPSUM 1,                      ! Name
  Smooth,                                 ! Roughness
  0.01271,                                ! Thickness {m}
  0.16,                                   ! Conductivity {W/m-K}
  800,                                    ! Density {kg/m3}
  1090,                                   ! Specific Heat {J/kg-K}
  0.9,                                    ! Thermal Absorptance
  0.7,                                    ! Solar Absorptance
  0.5;                                    ! Visible Absorptance

OS:Construction,
  {f2078263-40ff-46e0-ba13-728e442aeff5}, ! Handle
  AEDG-SmOffice 3A Int Wall,              ! Name
  ,                                       ! Surface Rendering Name
  {fba7979d-3463-4282-a9ab-4295ff0d68d5}, ! Layer 1
  {fba7979d-3463-4282-a9ab-4295ff0d68d5}; ! Layer 2

OS:Material,
  {fba7979d-3463-4282-a9ab-4295ff0d68d5}, ! Handle
  GP01 1/2 GYPSUM,                        ! Name
  Smooth,                                 ! Roughness
  0.01271,                                ! Thickness {m}
  0.16,                                   ! Conductivity {W/m-K}
  800,                                    ! Density {kg/m3}
  1090,                                   ! Specific Heat {J/kg-K}
  0.9,                                    ! Thermal Absorptance
  0.7,                                    ! Solar Absorptance
  0.5;                                    ! Visible Absorptance

