
OS:Version,
  {338b3b8c-1f57-41aa-924c-dccc36c1fd28}, ! Handle
  0.9.3;                                  ! Version Identifier

OS:Construction,
  {8f8906bc-bd21-4d6a-bb4c-68ed9a95dcae}, ! Handle
  90.1-1999 Nonres B2 Roof Attic and Other, ! Name
  ,                                       ! Surface Rendering Name
  {1182d080-85eb-4355-9478-b7ae786bfaaf}, ! Layer 1
  {36330aa4-ce11-4f62-838a-9809c22e1a27}, ! Layer 2
  {82425803-ecc1-4471-a3ab-d2eb30ecc53f}, ! Layer 3
  {ad2860fc-ffba-4e28-9e22-ca9db63378ff}; ! Layer 4

OS:Material,
  {1182d080-85eb-4355-9478-b7ae786bfaaf}, ! Handle
  Wood Shingles,                          ! Name
  VeryRough,                              ! Roughness
  0.0178,                                 ! Thickness {m}
  0.115,                                  ! Conductivity {W/m-K}
  513,                                    ! Density {kg/m3}
  1255,                                   ! Specific Heat {J/kg-K}
  0.9,                                    ! Thermal Absorptance
  0.78,                                   ! Solar Absorptance
  0.78;                                   ! Visible Absorptance

OS:Material,
  {36330aa4-ce11-4f62-838a-9809c22e1a27}, ! Handle
  1IN Wood Decking,                       ! Name
  MediumSmooth,                           ! Roughness
  0.0254,                                 ! Thickness {m}
  0.1211,                                 ! Conductivity {W/m-K}
  593,                                    ! Density {kg/m3}
  2510,                                   ! Specific Heat {J/kg-K}
  0.9,                                    ! Thermal Absorptance
  0.78,                                   ! Solar Absorptance
  0.78;                                   ! Visible Absorptance

OS:Material,
  {82425803-ecc1-4471-a3ab-d2eb30ecc53f}, ! Handle
  Roof Insulation [2],                    ! Name
  MediumRough,                            ! Roughness
  0.221604,                               ! Thickness {m}
  0.049,                                  ! Conductivity {W/m-K}
  265,                                    ! Density {kg/m3}
  836.8,                                  ! Specific Heat {J/kg-K}
  0.9,                                    ! Thermal Absorptance
  0.7,                                    ! Solar Absorptance
  0.7;                                    ! Visible Absorptance

OS:Material,
  {ad2860fc-ffba-4e28-9e22-ca9db63378ff}, ! Handle
  1/2IN Gypsum,                           ! Name
  Smooth,                                 ! Roughness
  0.01271,                                ! Thickness {m}
  0.16,                                   ! Conductivity {W/m-K}
  784.9,                                  ! Density {kg/m3}
  830,                                    ! Specific Heat {J/kg-K}
  0.9,                                    ! Thermal Absorptance
  0.92,                                   ! Solar Absorptance
  0.92;                                   ! Visible Absorptance

OS:ComponentCost:LineItem,
  {ce2746d1-8b46-453c-9992-6c280936abcc}, ! Handle
  90.1-1999 Nonres B2 Roof Attic and Other, ! Name
  ,                                       ! Type
  Construction,                           ! Line Item Type
  90.1-1999 Nonres B2 Roof Attic and Other, ! Item Name
  ,                                       ! Object End Use Key
  ,                                       ! Quantity {dimensionless}
  33.39,                                  ! Material Cost {$}
  CostPerArea;                            ! Material Cost Units

OS:ComponentData,
  {3bc1ca2a-6d5a-4d65-96c9-281a2d4b5599}, ! Handle
  Component Data 1,                       ! Name
  {b149bd37-8f52-4f46-9fb7-3b9c542e3454}, ! UUID
  {b02343a1-1a20-45b7-b95d-c4a31a516c23}, ! Version UUID
  1363981042,                             ! Creation Timestamp
  1363981042,                             ! Version Timestamp
  {8f8906bc-bd21-4d6a-bb4c-68ed9a95dcae}, ! Name of Object 1
  {1182d080-85eb-4355-9478-b7ae786bfaaf}, ! Name of Object 2
  {36330aa4-ce11-4f62-838a-9809c22e1a27}, ! Name of Object 3
  {82425803-ecc1-4471-a3ab-d2eb30ecc53f}, ! Name of Object 4
  {ad2860fc-ffba-4e28-9e22-ca9db63378ff}, ! Name of Object 5
  {ce2746d1-8b46-453c-9992-6c280936abcc}; ! Name of Object 6

