
OS:Version,
  {f0846cc2-55a8-4456-9082-281689129e71}, ! Handle
  0.9.3;                                  ! Version Identifier

OS:Material,
  {ba910498-edd5-4da8-8be5-ff93ce3b6f8e}, ! Handle
  Metal Decking,                          ! Name
  MediumSmooth,                           ! Roughness
  0.001524,                               ! Thickness {m}
  45.006,                                 ! Conductivity {W/m-K}
  7680,                                   ! Density {kg/m3}
  418.4,                                  ! Specific Heat {J/kg-K}
  0.9,                                    ! Thermal Absorptance
  0.7,                                    ! Solar Absorptance
  0.3;                                    ! Visible Absorptance

OS:Construction,
  {9df0a500-1bfc-4835-bade-9fde6a36c06e}, ! Handle
  Title 24-2005 Nonres 2 Roof IEAD,       ! Name
  ,                                       ! Surface Rendering Name
  {8e09dcfd-b86a-40f9-88df-b1fad8960fa6}, ! Layer 1
  {c1d1493a-b81d-4fe6-92a3-f6874df530b5}, ! Layer 2
  {ba910498-edd5-4da8-8be5-ff93ce3b6f8e}; ! Layer 3

OS:Material,
  {8e09dcfd-b86a-40f9-88df-b1fad8960fa6}, ! Handle
  Roof Membrane,                          ! Name
  VeryRough,                              ! Roughness
  0.0095,                                 ! Thickness {m}
  0.16,                                   ! Conductivity {W/m-K}
  1121.29,                                ! Density {kg/m3}
  1460,                                   ! Specific Heat {J/kg-K}
  0.9,                                    ! Thermal Absorptance
  0.7,                                    ! Solar Absorptance
  0.7;                                    ! Visible Absorptance

OS:Material,
  {c1d1493a-b81d-4fe6-92a3-f6874df530b5}, ! Handle
  Roof Insulation [101],                  ! Name
  MediumRough,                            ! Roughness
  0.15703,                                ! Thickness {m}
  0.049,                                  ! Conductivity {W/m-K}
  265,                                    ! Density {kg/m3}
  836.8,                                  ! Specific Heat {J/kg-K}
  0.9,                                    ! Thermal Absorptance
  0.7,                                    ! Solar Absorptance
  0.7;                                    ! Visible Absorptance

OS:ComponentCost:LineItem,
  {d4c4f909-cbbd-4a78-bec8-6e070db10574}, ! Handle
  Title 24-2005 Nonres 2 Roof IEAD,       ! Name
  ,                                       ! Type
  Construction,                           ! Line Item Type
  Title 24-2005 Nonres 2 Roof IEAD,       ! Item Name
  ,                                       ! Object End Use Key
  ,                                       ! Quantity {dimensionless}
  52.144,                                 ! Material Cost {$}
  CostPerArea;                            ! Material Cost Units

