
OS:Version,
  {df82492e-046d-4e69-8d15-47325364a045}, ! Handle
  0.9.3;                                  ! Version Identifier

OS:Construction,
  {f693c603-5f9a-48b1-b44e-af312e89e7d4}, ! Handle
  Title 24-2005 Nonres 2 Roof IEAD,       ! Name
  ,                                       ! Surface Rendering Name
  {cf081e59-a350-4c5c-a6eb-4c4cde70b6b7}, ! Layer 1
  {bcc0b258-77fb-4522-8785-f971ae320a74}, ! Layer 2
  {5b271173-b82f-4e2c-bd99-670101bce5fa}; ! Layer 3

OS:Material,
  {cf081e59-a350-4c5c-a6eb-4c4cde70b6b7}, ! Handle
  Roof Membrane,                          ! Name
  VeryRough,                              ! Roughness
  0.0095,                                 ! Thickness {m}
  0.16,                                   ! Conductivity {W/m-K}
  1121.29,                                ! Density {kg/m3}
  1460,                                   ! Specific Heat {J/kg-K}
  0.9,                                    ! Thermal Absorptance
  0.7,                                    ! Solar Absorptance
  0.7;                                    ! Visible Absorptance

OS:Material,
  {bcc0b258-77fb-4522-8785-f971ae320a74}, ! Handle
  Roof Insulation [101],                  ! Name
  MediumRough,                            ! Roughness
  0.15703,                                ! Thickness {m}
  0.049,                                  ! Conductivity {W/m-K}
  265,                                    ! Density {kg/m3}
  836.8,                                  ! Specific Heat {J/kg-K}
  0.9,                                    ! Thermal Absorptance
  0.7,                                    ! Solar Absorptance
  0.7;                                    ! Visible Absorptance

OS:Material,
  {5b271173-b82f-4e2c-bd99-670101bce5fa}, ! Handle
  Metal Decking,                          ! Name
  MediumSmooth,                           ! Roughness
  0.001524,                               ! Thickness {m}
  45.006,                                 ! Conductivity {W/m-K}
  7680,                                   ! Density {kg/m3}
  418.4,                                  ! Specific Heat {J/kg-K}
  0.9,                                    ! Thermal Absorptance
  0.7,                                    ! Solar Absorptance
  0.3;                                    ! Visible Absorptance

OS:ComponentCost:LineItem,
  {18060cfc-c2d9-44f7-8c69-a74912e04d3c}, ! Handle
  Title 24-2005 Nonres 2 Roof IEAD,       ! Name
  ,                                       ! Type
  Construction,                           ! Line Item Type
  Title 24-2005 Nonres 2 Roof IEAD,       ! Item Name
  ,                                       ! Object End Use Key
  ,                                       ! Quantity {dimensionless}
  52.144,                                 ! Material Cost {$}
  CostPerArea;                            ! Material Cost Units

OS:ComponentData,
  {e72d20e2-7057-4861-8872-fe7c33572fb9}, ! Handle
  Component Data 1,                       ! Name
  {017d6678-1155-4fa1-b8fb-3e7ca33750fa}, ! UUID
  {a96289d5-3e86-47f3-958f-289e4a8a3433}, ! Version UUID
  1363981971,                             ! Creation Timestamp
  1363981971,                             ! Version Timestamp
  {f693c603-5f9a-48b1-b44e-af312e89e7d4}, ! Name of Object 1
  {cf081e59-a350-4c5c-a6eb-4c4cde70b6b7}, ! Name of Object 2
  {bcc0b258-77fb-4522-8785-f971ae320a74}, ! Name of Object 3
  {5b271173-b82f-4e2c-bd99-670101bce5fa}, ! Name of Object 4
  {18060cfc-c2d9-44f7-8c69-a74912e04d3c}; ! Name of Object 5

