
! 
OS:Version,
  {b931843d-5409-43ea-9d81-bda9506faad6}, !- Handle
  1.13.0;                                 !- Version Identifier


! 
OS:Material,
  {9b6d258b-dc9f-452b-a1db-39b7d936349f}, !- Handle
  Aislamiento: SATE
ISOVER: ISOFEX (0.140 m)
R: 3.9 m2K/W,                             !- Name
  MediumRough,                                 !- Roughness
  0.14,                                    !- Thickness {m}
  0.036,                                    !- Conductivity {W/m-K}
  120.0,                                    !- Density {kg/m3}
  800.0,                                    !- Specific Heat {J/kg-K}
  0.9,                                    !- Thermal Absorptance
  0.6,                                    !- Solar Absorptance
  0.6;                                    !- Visible Absorptance

