
OS:Version,
  {9048828d-8d5f-484b-8612-f88b1972f7e6}, ! Handle
  0.9.3;                                  ! Version Identifier

OS:ComponentCost:LineItem,
  {3c456ebc-a7ea-473c-afa8-a5014ba96ef7}, ! Handle
  90.1-2004 Nonres 8A Ext Wall Metal Building, ! Name
  ,                                       ! Type
  Construction,                           ! Line Item Type
  90.1-2004 Nonres 8A Ext Wall Metal Building, ! Item Name
  ,                                       ! Object End Use Key
  ,                                       ! Quantity {dimensionless}
  107.698,                                ! Material Cost {$}
  CostPerArea;                            ! Material Cost Units

OS:Material,
  {213e2ce7-fa71-4f8f-b2fc-ba0324ef74f5}, ! Handle
  1/2IN Gypsum,                           ! Name
  Smooth,                                 ! Roughness
  0.01271,                                ! Thickness {m}
  0.16,                                   ! Conductivity {W/m-K}
  784.9,                                  ! Density {kg/m3}
  830,                                    ! Specific Heat {J/kg-K}
  0.9,                                    ! Thermal Absorptance
  0.92,                                   ! Solar Absorptance
  0.92;                                   ! Visible Absorptance

OS:Material,
  {273335ef-ef46-4f41-b5f1-eee6b6685d53}, ! Handle
  Metal Siding,                           ! Name
  Smooth,                                 ! Roughness
  0.0015,                                 ! Thickness {m}
  44.96,                                  ! Conductivity {W/m-K}
  7688.86,                                ! Density {kg/m3}
  410,                                    ! Specific Heat {J/kg-K}
  0.9,                                    ! Thermal Absorptance
  0.2,                                    ! Solar Absorptance
  0.2;                                    ! Visible Absorptance

OS:Material,
  {7d16df6f-be98-44f8-8224-80924689cc10}, ! Handle
  Wall Insulation [9],                    ! Name
  MediumRough,                            ! Roughness
  0.128642,                               ! Thickness {m}
  0.045,                                  ! Conductivity {W/m-K}
  265,                                    ! Density {kg/m3}
  836.8,                                  ! Specific Heat {J/kg-K}
  0.9,                                    ! Thermal Absorptance
  0.7,                                    ! Solar Absorptance
  0.7;                                    ! Visible Absorptance

OS:Construction,
  {79cf895b-2e9a-4abb-919c-5f0d359c4ea6}, ! Handle
  90.1-2004 Nonres 8A Ext Wall Metal Building, ! Name
  ,                                       ! Surface Rendering Name
  {273335ef-ef46-4f41-b5f1-eee6b6685d53}, ! Layer 1
  {7d16df6f-be98-44f8-8224-80924689cc10}, ! Layer 2
  {213e2ce7-fa71-4f8f-b2fc-ba0324ef74f5}; ! Layer 3

