
OS:Version,
  {33284789-733b-4ca0-b117-59382b3992bb}, ! Handle
  0.9.3;                                  ! Version Identifier

OS:Construction,
  {7c352bb8-b92c-47ba-bb93-ccbfb15c257e}, ! Handle
  90.1-2001 Res B21 Skylight without Curb, ! Name
  ,                                       ! Surface Rendering Name
  {e3ee7c0e-5833-4144-bf8d-bcd0651f4f85}; ! Layer 1

OS:WindowMaterial:Glazing,
  {e3ee7c0e-5833-4144-bf8d-bcd0651f4f85}, ! Handle
  Theoretical Glass [107],                ! Name
  SpectralAverage,                        ! Optical Data Type
  ,                                       ! Window Glass Spectral Data Set Name
  0.003,                                  ! Thickness {m}
  0.441141,                               ! Solar Transmittance at Normal Incidence
  0.508859,                               ! Front Side Solar Reflectance at Normal Incidence
  0.508859,                               ! Back Side Solar Reflectance at Normal Incidence
  0.460166,                               ! Visible Transmittance at Normal Incidence
  0.489834,                               ! Front Side Visible Reflectance at Normal Incidence
  0.489834,                               ! Back Side Visible Reflectance at Normal Incidence
  0,                                      ! Infrared Transmittance at Normal Incidence
  0.9,                                    ! Front Side Infrared Hemispherical Emissivity
  0.9,                                    ! Back Side Infrared Hemispherical Emissivity
  0.0214562;                              ! Conductivity {W/m-K}

OS:ComponentCost:LineItem,
  {091b1c11-46c8-4408-976b-62afbf6f2cd6}, ! Handle
  90.1-2001 Res B21 Skylight without Curb, ! Name
  ,                                       ! Type
  Construction,                           ! Line Item Type
  90.1-2001 Res B21 Skylight without Curb, ! Item Name
  ,                                       ! Object End Use Key
  ,                                       ! Quantity {dimensionless}
  549.465,                                ! Material Cost {$}
  CostPerArea;                            ! Material Cost Units

OS:ComponentData,
  {569adbf5-13c7-4791-8197-c8404105b93d}, ! Handle
  Component Data 1,                       ! Name
  {3e1af472-2035-4bdc-a65b-d0529bf7b43f}, ! UUID
  {3a91af3c-a20a-4ec3-9404-d6b3813ef34c}, ! Version UUID
  1363981586,                             ! Creation Timestamp
  1363981586,                             ! Version Timestamp
  {7c352bb8-b92c-47ba-bb93-ccbfb15c257e}, ! Name of Object 1
  {e3ee7c0e-5833-4144-bf8d-bcd0651f4f85}, ! Name of Object 2
  {091b1c11-46c8-4408-976b-62afbf6f2cd6}; ! Name of Object 3

