
OS:Version,
  {748a7424-1d24-4993-a280-862f0db0fec8}, ! Handle
  0.9.3;                                  ! Version Identifier

OS:WindowMaterial:Glazing,
  {375435db-dfe6-4dd9-ad8b-1baf3da04a5c}, ! Handle
  Theoretical Glass [107],                ! Name
  SpectralAverage,                        ! Optical Data Type
  ,                                       ! Window Glass Spectral Data Set Name
  0.003,                                  ! Thickness {m}
  0.441141,                               ! Solar Transmittance at Normal Incidence
  0.508859,                               ! Front Side Solar Reflectance at Normal Incidence
  0.508859,                               ! Back Side Solar Reflectance at Normal Incidence
  0.460166,                               ! Visible Transmittance at Normal Incidence
  0.489834,                               ! Front Side Visible Reflectance at Normal Incidence
  0.489834,                               ! Back Side Visible Reflectance at Normal Incidence
  0,                                      ! Infrared Transmittance at Normal Incidence
  0.9,                                    ! Front Side Infrared Hemispherical Emissivity
  0.9,                                    ! Back Side Infrared Hemispherical Emissivity
  0.0214562;                              ! Conductivity {W/m-K}

OS:Construction,
  {b2b3569a-509f-4f4a-822f-b90592b9561c}, ! Handle
  90.1-2001 Res B21 Skylight without Curb, ! Name
  ,                                       ! Surface Rendering Name
  {375435db-dfe6-4dd9-ad8b-1baf3da04a5c}; ! Layer 1

OS:ComponentCost:LineItem,
  {6d29ae20-09c8-46b1-b08b-8c566dbdb03e}, ! Handle
  90.1-2001 Res B21 Skylight without Curb, ! Name
  ,                                       ! Type
  Construction,                           ! Line Item Type
  90.1-2001 Res B21 Skylight without Curb, ! Item Name
  ,                                       ! Object End Use Key
  ,                                       ! Quantity {dimensionless}
  549.465,                                ! Material Cost {$}
  CostPerArea;                            ! Material Cost Units

