
OS:Version,
  {c6ddebe8-775a-45f9-a6b4-7a32bbec9aad}, ! Handle
  0.9.3;                                  ! Version Identifier

OS:Construction,
  {7723f7ea-001a-41d5-b392-81c3836d3e1d}, ! Handle
  90.1-2001 Res B2 Roof Metal Building,   ! Name
  ,                                       ! Surface Rendering Name
  {8cf68221-549b-4ccc-97e5-f1730465978f}, ! Layer 1
  {4b63870d-98de-4583-bc37-01a62c3e9236}; ! Layer 2

OS:Material,
  {8cf68221-549b-4ccc-97e5-f1730465978f}, ! Handle
  Metal Roofing,                          ! Name
  MediumSmooth,                           ! Roughness
  0.001524,                               ! Thickness {m}
  45.006,                                 ! Conductivity {W/m-K}
  7680,                                   ! Density {kg/m3}
  418.4,                                  ! Specific Heat {J/kg-K}
  0.9,                                    ! Thermal Absorptance
  0.7,                                    ! Solar Absorptance
  0.3;                                    ! Visible Absorptance

OS:Material,
  {4b63870d-98de-4583-bc37-01a62c3e9236}, ! Handle
  Roof Insulation [1],                    ! Name
  MediumRough,                            ! Roughness
  0.123533,                               ! Thickness {m}
  0.049,                                  ! Conductivity {W/m-K}
  265,                                    ! Density {kg/m3}
  836.8,                                  ! Specific Heat {J/kg-K}
  0.9,                                    ! Thermal Absorptance
  0.7,                                    ! Solar Absorptance
  0.7;                                    ! Visible Absorptance

OS:ComponentCost:LineItem,
  {dd504e22-d1d1-48d7-aa21-b592b2faf473}, ! Handle
  90.1-2001 Res B2 Roof Metal Building,   ! Name
  ,                                       ! Type
  Construction,                           ! Line Item Type
  90.1-2001 Res B2 Roof Metal Building,   ! Item Name
  ,                                       ! Object End Use Key
  ,                                       ! Quantity {dimensionless}
  38.206,                                 ! Material Cost {$}
  CostPerArea;                            ! Material Cost Units

OS:ComponentData,
  {6fdbf202-7a06-4cad-af40-3fb0b36d190a}, ! Handle
  Component Data 1,                       ! Name
  {855ea24a-1d21-41de-84c0-fc137cdbb1f8}, ! UUID
  {f74537af-320d-4f48-be69-0d47d35e3d7f}, ! Version UUID
  1363981451,                             ! Creation Timestamp
  1363981451,                             ! Version Timestamp
  {7723f7ea-001a-41d5-b392-81c3836d3e1d}, ! Name of Object 1
  {8cf68221-549b-4ccc-97e5-f1730465978f}, ! Name of Object 2
  {4b63870d-98de-4583-bc37-01a62c3e9236}, ! Name of Object 3
  {dd504e22-d1d1-48d7-aa21-b592b2faf473}; ! Name of Object 4

