
OS:Version,
  {5199c4b2-48ee-4c58-ad42-98c83485832e}, !- Handle
  1.0.6;                                  !- Version Identifier

OS:WindowMaterial:Glazing,
  {7c06046d-3068-439a-a57c-f8a278d8c04b}, !- Handle
  189.1-2011 NONRES 7A METAL FRAMING ENTRANCE DOOR THEORETICAL GLAZING, !- Name
  SpectralAverage,                        !- Optical Data Type
  ,                                       !- Window Glass Spectral Data Set Name
  0.002,                                  !- Thickness {m}
  0.32248,                                !- Solar Transmittance at Normal Incidence
  0.31206,                                !- Front Side Solar Reflectance at Normal Incidence
  0.31206,                                !- Back Side Solar Reflectance at Normal Incidence
  0.32248,                                !- Visible Transmittance at Normal Incidence
  0.31206,                                !- Front Side Visible Reflectance at Normal Incidence
  0.31206,                                !- Back Side Visible Reflectance at Normal Incidence
  0,                                      !- Infrared Transmittance at Normal Incidence
  0.84,                                   !- Front Side Infrared Hemispherical Emissivity
  0.84,                                   !- Back Side Infrared Hemispherical Emissivity
  0.02398,                                !- Conductivity {W/m-K}
  1,                                      !- Dirt Correction Factor for Solar and Visible Transmittance
  No;                                     !- Solar Diffusing

OS:Construction,
  {b2447397-a516-4f80-8b2f-3383e1a3828b}, !- Handle
  189.1-2011 NONRES 7 METAL FRAMING ENTRANCE DOOR, !- Name
  ,                                       !- Surface Rendering Name
  {7c06046d-3068-439a-a57c-f8a278d8c04b}; !- Layer 1

