
OS:Version,
  {1a6e7294-c017-486d-8c72-9d24a1cab90c}, ! Handle
  0.9.3;                                  ! Version Identifier

OS:Construction,
  {60587647-8a60-448f-a560-87d002aea43e}, ! Handle
  90.1-2007 Nonres 4B Window Metal framing curtainwall-storefront, ! Name
  ,                                       ! Surface Rendering Name
  {8f0f783b-f0d7-4fe4-809d-13b8f0c13846}; ! Layer 1

OS:WindowMaterial:Glazing,
  {8f0f783b-f0d7-4fe4-809d-13b8f0c13846}, ! Handle
  Theoretical Glass [180],                ! Name
  SpectralAverage,                        ! Optical Data Type
  ,                                       ! Window Glass Spectral Data Set Name
  0.003,                                  ! Thickness {m}
  0.393749,                               ! Solar Transmittance at Normal Incidence
  0.556251,                               ! Front Side Solar Reflectance at Normal Incidence
  0.556251,                               ! Back Side Solar Reflectance at Normal Incidence
  0.507883,                               ! Visible Transmittance at Normal Incidence
  0.442117,                               ! Front Side Visible Reflectance at Normal Incidence
  0.442117,                               ! Back Side Visible Reflectance at Normal Incidence
  0,                                      ! Infrared Transmittance at Normal Incidence
  0.9,                                    ! Front Side Infrared Hemispherical Emissivity
  0.9,                                    ! Back Side Infrared Hemispherical Emissivity
  0.0155531;                              ! Conductivity {W/m-K}

OS:ComponentCost:LineItem,
  {f047b417-b810-4b60-a866-5fce192a976d}, ! Handle
  90.1-2007 Nonres 4B Window Metal framing curtainwall-storefront, ! Name
  ,                                       ! Type
  Construction,                           ! Line Item Type
  90.1-2007 Nonres 4B Window Metal framing curtainwall-storefront, ! Item Name
  ,                                       ! Object End Use Key
  ,                                       ! Quantity {dimensionless}
  512.02,                                 ! Material Cost {$}
  CostPerArea;                            ! Material Cost Units

