
OS:Version,
  {08b1a3b7-5ea9-41ca-bed7-00f56e60ade4}, ! Handle
  0.9.3;                                  ! Version Identifier

OS:ComponentCost:LineItem,
  {6fa4b2aa-d485-46a7-8472-d4c7e7e7e6f4}, ! Handle
  Title 24-2008 Nonres 6 Roof IEAD,       ! Name
  ,                                       ! Type
  Construction,                           ! Line Item Type
  Title 24-2008 Nonres 6 Roof IEAD,       ! Item Name
  ,                                       ! Object End Use Key
  ,                                       ! Quantity {dimensionless}
  47.608,                                 ! Material Cost {$}
  CostPerArea;                            ! Material Cost Units

OS:Material,
  {cafc3ed7-c636-462a-8cf5-e16fa633192f}, ! Handle
  Metal Decking,                          ! Name
  MediumSmooth,                           ! Roughness
  0.001524,                               ! Thickness {m}
  45.006,                                 ! Conductivity {W/m-K}
  7680,                                   ! Density {kg/m3}
  418.4,                                  ! Specific Heat {J/kg-K}
  0.9,                                    ! Thermal Absorptance
  0.7,                                    ! Solar Absorptance
  0.3;                                    ! Visible Absorptance

OS:Material,
  {444dc9de-b3a3-4fe8-9e6b-6a6dd96bd774}, ! Handle
  Roof Insulation [108],                  ! Name
  MediumRough,                            ! Roughness
  0.102899,                               ! Thickness {m}
  0.049,                                  ! Conductivity {W/m-K}
  265,                                    ! Density {kg/m3}
  836.8,                                  ! Specific Heat {J/kg-K}
  0.9,                                    ! Thermal Absorptance
  0.7,                                    ! Solar Absorptance
  0.7;                                    ! Visible Absorptance

OS:Construction,
  {58822c6b-b6c8-4135-a4db-67d23c8ba584}, ! Handle
  Title 24-2008 Nonres 6 Roof IEAD,       ! Name
  ,                                       ! Surface Rendering Name
  {5fd5eee4-90fa-44ba-b076-8ec519e15070}, ! Layer 1
  {444dc9de-b3a3-4fe8-9e6b-6a6dd96bd774}, ! Layer 2
  {cafc3ed7-c636-462a-8cf5-e16fa633192f}; ! Layer 3

OS:Material,
  {5fd5eee4-90fa-44ba-b076-8ec519e15070}, ! Handle
  Roof Membrane [2],                      ! Name
  VeryRough,                              ! Roughness
  0.0095,                                 ! Thickness {m}
  0.16,                                   ! Conductivity {W/m-K}
  1121.29,                                ! Density {kg/m3}
  1460,                                   ! Specific Heat {J/kg-K}
  0.9,                                    ! Thermal Absorptance
  0.7,                                    ! Solar Absorptance
  0.85;                                   ! Visible Absorptance

