
OS:Version,
  {d2b431cd-a666-4d11-8649-58e9a6daea95}, ! Handle
  0.9.3;                                  ! Version Identifier

OS:Construction,
  {51298b08-21c5-4082-b3a3-ceda423bcdc7}, ! Handle
  189.1-2009 Nonres 6B Window Metal framing entrance door, ! Name
  ,                                       ! Surface Rendering Name
  {fd36ce86-b993-416c-b583-788b618b0164}; ! Layer 1

OS:WindowMaterial:Glazing,
  {fd36ce86-b993-416c-b583-788b618b0164}, ! Handle
  Theoretical Glass [215],                ! Name
  SpectralAverage,                        ! Optical Data Type
  ,                                       ! Window Glass Spectral Data Set Name
  0.003,                                  ! Thickness {m}
  0.382681,                               ! Solar Transmittance at Normal Incidence
  0.567319,                               ! Front Side Solar Reflectance at Normal Incidence
  0.567319,                               ! Back Side Solar Reflectance at Normal Incidence
  0.507883,                               ! Visible Transmittance at Normal Incidence
  0.442117,                               ! Front Side Visible Reflectance at Normal Incidence
  0.442117,                               ! Back Side Visible Reflectance at Normal Incidence
  0,                                      ! Infrared Transmittance at Normal Incidence
  0.9,                                    ! Front Side Infrared Hemispherical Emissivity
  0.9,                                    ! Back Side Infrared Hemispherical Emissivity
  0.0336861;                              ! Conductivity {W/m-K}

OS:ComponentCost:LineItem,
  {70057c0c-2327-4060-aa6c-21bac79beebe}, ! Handle
  189.1-2009 Nonres 6B Window Metal framing entrance door, ! Name
  ,                                       ! Type
  Construction,                           ! Line Item Type
  189.1-2009 Nonres 6B Window Metal framing entrance door, ! Item Name
  ,                                       ! Object End Use Key
  ,                                       ! Quantity {dimensionless}
  512.02,                                 ! Material Cost {$}
  CostPerArea;                            ! Material Cost Units

