
OS:Version,
  {85e9da98-552f-457c-9f9f-080336645046}, ! Handle
  0.9.3;                                  ! Version Identifier

OS:Construction,
  {648d5195-6e73-4b2b-997f-f7b1e8def35e}, ! Handle
  189.1-2009 Nonres 6B Window Metal framing entrance door, ! Name
  ,                                       ! Surface Rendering Name
  {d1add91b-0c10-4851-a210-1039b0df35fb}; ! Layer 1

OS:WindowMaterial:Glazing,
  {d1add91b-0c10-4851-a210-1039b0df35fb}, ! Handle
  Theoretical Glass [215],                ! Name
  SpectralAverage,                        ! Optical Data Type
  ,                                       ! Window Glass Spectral Data Set Name
  0.003,                                  ! Thickness {m}
  0.382681,                               ! Solar Transmittance at Normal Incidence
  0.567319,                               ! Front Side Solar Reflectance at Normal Incidence
  0.567319,                               ! Back Side Solar Reflectance at Normal Incidence
  0.507883,                               ! Visible Transmittance at Normal Incidence
  0.442117,                               ! Front Side Visible Reflectance at Normal Incidence
  0.442117,                               ! Back Side Visible Reflectance at Normal Incidence
  0,                                      ! Infrared Transmittance at Normal Incidence
  0.9,                                    ! Front Side Infrared Hemispherical Emissivity
  0.9,                                    ! Back Side Infrared Hemispherical Emissivity
  0.0336861;                              ! Conductivity {W/m-K}

OS:ComponentCost:LineItem,
  {df561ab4-039c-4c21-b166-f0eddc2deb39}, ! Handle
  189.1-2009 Nonres 6B Window Metal framing entrance door, ! Name
  ,                                       ! Type
  Construction,                           ! Line Item Type
  189.1-2009 Nonres 6B Window Metal framing entrance door, ! Item Name
  ,                                       ! Object End Use Key
  ,                                       ! Quantity {dimensionless}
  512.02,                                 ! Material Cost {$}
  CostPerArea;                            ! Material Cost Units

OS:ComponentData,
  {ca1b1678-b85a-46d8-8590-9815239e9f0f}, ! Handle
  Component Data 1,                       ! Name
  {3b9a4425-99f6-4e0e-8db1-78ddc10f0b95}, ! UUID
  {b154d575-853c-4ae6-a979-c5c5b069345d}, ! Version UUID
  1363980949,                             ! Creation Timestamp
  1363980949,                             ! Version Timestamp
  {648d5195-6e73-4b2b-997f-f7b1e8def35e}, ! Name of Object 1
  {d1add91b-0c10-4851-a210-1039b0df35fb}, ! Name of Object 2
  {df561ab4-039c-4c21-b166-f0eddc2deb39}; ! Name of Object 3

