
OS:Version,
  {b97c8f8c-d072-4680-bb77-2ff29cc97f43}, ! Handle
  0.9.3;                                  ! Version Identifier

OS:Construction,
  {8e3c9f04-0d2a-4695-934c-39d547f62b23}, ! Handle
  90.1-2001 Res B26 Ext Wall Metal Building, ! Name
  ,                                       ! Surface Rendering Name
  {90cd0fd8-1729-46f8-82d0-b8759ea1a742}, ! Layer 1
  {b3cd34aa-9809-4f55-ba92-e0946b9605c9}, ! Layer 2
  {59398b61-4332-4ace-9202-ae41ecedb0f3}; ! Layer 3

OS:Material,
  {90cd0fd8-1729-46f8-82d0-b8759ea1a742}, ! Handle
  Metal Siding,                           ! Name
  Smooth,                                 ! Roughness
  0.0015,                                 ! Thickness {m}
  44.96,                                  ! Conductivity {W/m-K}
  7688.86,                                ! Density {kg/m3}
  410,                                    ! Specific Heat {J/kg-K}
  0.9,                                    ! Thermal Absorptance
  0.2,                                    ! Solar Absorptance
  0.2;                                    ! Visible Absorptance

OS:Material,
  {b3cd34aa-9809-4f55-ba92-e0946b9605c9}, ! Handle
  Wall Insulation [17],                   ! Name
  MediumRough,                            ! Roughness
  0.133722,                               ! Thickness {m}
  0.045,                                  ! Conductivity {W/m-K}
  265,                                    ! Density {kg/m3}
  836.8,                                  ! Specific Heat {J/kg-K}
  0.9,                                    ! Thermal Absorptance
  0.7,                                    ! Solar Absorptance
  0.7;                                    ! Visible Absorptance

OS:Material,
  {59398b61-4332-4ace-9202-ae41ecedb0f3}, ! Handle
  1/2IN Gypsum,                           ! Name
  Smooth,                                 ! Roughness
  0.01271,                                ! Thickness {m}
  0.16,                                   ! Conductivity {W/m-K}
  784.9,                                  ! Density {kg/m3}
  830,                                    ! Specific Heat {J/kg-K}
  0.9,                                    ! Thermal Absorptance
  0.92,                                   ! Solar Absorptance
  0.92;                                   ! Visible Absorptance

OS:ComponentCost:LineItem,
  {0b2e7721-791c-4087-83ba-67adf748aaac}, ! Handle
  90.1-2001 Res B26 Ext Wall Metal Building, ! Name
  ,                                       ! Type
  Construction,                           ! Line Item Type
  90.1-2001 Res B26 Ext Wall Metal Building, ! Item Name
  ,                                       ! Object End Use Key
  ,                                       ! Quantity {dimensionless}
  108.556,                                ! Material Cost {$}
  CostPerArea;                            ! Material Cost Units

OS:ComponentData,
  {5a1d3f73-f08c-4a47-a1bc-f1e936efc621}, ! Handle
  Component Data 1,                       ! Name
  {d58003aa-8b48-4048-98a0-d295cf41bdd9}, ! UUID
  {24f04818-762f-46f5-ada2-8a5aa273f930}, ! Version UUID
  1363981619,                             ! Creation Timestamp
  1363981619,                             ! Version Timestamp
  {8e3c9f04-0d2a-4695-934c-39d547f62b23}, ! Name of Object 1
  {90cd0fd8-1729-46f8-82d0-b8759ea1a742}, ! Name of Object 2
  {b3cd34aa-9809-4f55-ba92-e0946b9605c9}, ! Name of Object 3
  {59398b61-4332-4ace-9202-ae41ecedb0f3}, ! Name of Object 4
  {0b2e7721-791c-4087-83ba-67adf748aaac}; ! Name of Object 5

