
OS:Version,
  {a53d8651-37d3-477e-af4a-0578f57a2314}, ! Handle
  0.9.3;                                  ! Version Identifier

OS:Material,
  {b7904ca7-e06b-4bdd-9851-0e232784225a}, ! Handle
  1/2IN Gypsum,                           ! Name
  Smooth,                                 ! Roughness
  0.01271,                                ! Thickness {m}
  0.16,                                   ! Conductivity {W/m-K}
  784.9,                                  ! Density {kg/m3}
  830,                                    ! Specific Heat {J/kg-K}
  0.9,                                    ! Thermal Absorptance
  0.92,                                   ! Solar Absorptance
  0.92;                                   ! Visible Absorptance

OS:Material,
  {7db7b15e-2929-40f2-b742-0be1dc01e2c9}, ! Handle
  Metal Siding,                           ! Name
  Smooth,                                 ! Roughness
  0.0015,                                 ! Thickness {m}
  44.96,                                  ! Conductivity {W/m-K}
  7688.86,                                ! Density {kg/m3}
  410,                                    ! Specific Heat {J/kg-K}
  0.9,                                    ! Thermal Absorptance
  0.2,                                    ! Solar Absorptance
  0.2;                                    ! Visible Absorptance

OS:Material,
  {1610e821-7024-43aa-b0f2-9e2d1f92542e}, ! Handle
  Wall Insulation [17],                   ! Name
  MediumRough,                            ! Roughness
  0.133722,                               ! Thickness {m}
  0.045,                                  ! Conductivity {W/m-K}
  265,                                    ! Density {kg/m3}
  836.8,                                  ! Specific Heat {J/kg-K}
  0.9,                                    ! Thermal Absorptance
  0.7,                                    ! Solar Absorptance
  0.7;                                    ! Visible Absorptance

OS:ComponentCost:LineItem,
  {fea416ba-fb06-4dfb-9044-36101fb9a7fa}, ! Handle
  90.1-2001 Res B26 Ext Wall Metal Building, ! Name
  ,                                       ! Type
  Construction,                           ! Line Item Type
  90.1-2001 Res B26 Ext Wall Metal Building, ! Item Name
  ,                                       ! Object End Use Key
  ,                                       ! Quantity {dimensionless}
  108.556,                                ! Material Cost {$}
  CostPerArea;                            ! Material Cost Units

OS:Construction,
  {b576ffcc-1305-4125-b69a-48154cf0606c}, ! Handle
  90.1-2001 Res B26 Ext Wall Metal Building, ! Name
  ,                                       ! Surface Rendering Name
  {7db7b15e-2929-40f2-b742-0be1dc01e2c9}, ! Layer 1
  {1610e821-7024-43aa-b0f2-9e2d1f92542e}, ! Layer 2
  {b7904ca7-e06b-4bdd-9851-0e232784225a}; ! Layer 3

