
OS:Version,
  {d6b8dbeb-e180-4ce0-9e8b-33d61ff201cc}, ! Handle
  0.9.3;                                  ! Version Identifier

OS:Construction,
  {74ba7f90-7ed8-4e53-a1a3-16c5ade95037}, ! Handle
  90.1 Windows Window Fixed 2622 Vnl-Grn-Ins-ClrPye, ! Name
  ,                                       ! Surface Rendering Name
  {cb41b38a-8b18-4161-bb01-3e681e64cefd}; ! Layer 1

OS:WindowMaterial:Glazing,
  {cb41b38a-8b18-4161-bb01-3e681e64cefd}, ! Handle
  Theoretical Glass [386],                ! Name
  SpectralAverage,                        ! Optical Data Type
  ,                                       ! Window Glass Spectral Data Set Name
  0.003,                                  ! Thickness {m}
  0.375856,                               ! Solar Transmittance at Normal Incidence
  0.574144,                               ! Front Side Solar Reflectance at Normal Incidence
  0.574144,                               ! Back Side Solar Reflectance at Normal Incidence
  0.529698,                               ! Visible Transmittance at Normal Incidence
  0.420302,                               ! Front Side Visible Reflectance at Normal Incidence
  0.420302,                               ! Back Side Visible Reflectance at Normal Incidence
  0,                                      ! Infrared Transmittance at Normal Incidence
  0.9,                                    ! Front Side Infrared Hemispherical Emissivity
  0.9,                                    ! Back Side Infrared Hemispherical Emissivity
  0.0088199;                              ! Conductivity {W/m-K}

OS:ComponentCost:LineItem,
  {59c56085-2789-4cf9-8a3c-66bbbd664af8}, ! Handle
  90.1 Windows Window Fixed 2622 Vnl-Grn-Ins-ClrPye, ! Name
  ,                                       ! Type
  Construction,                           ! Line Item Type
  90.1 Windows Window Fixed 2622 Vnl-Grn-Ins-ClrPye, ! Item Name
  ,                                       ! Object End Use Key
  ,                                       ! Quantity {dimensionless}
  0,                                      ! Material Cost {$}
  CostPerArea;                            ! Material Cost Units

