
OS:Version,
  {2fb6c603-c03a-4ed6-ad68-f2ce9bb8ca63}, ! Handle
  0.9.3;                                  ! Version Identifier

OS:Material,
  {0d3f4094-c028-4851-bdb0-b6b9dc5c18bf}, ! Handle
  Metal Siding,                           ! Name
  Smooth,                                 ! Roughness
  0.0015,                                 ! Thickness {m}
  44.96,                                  ! Conductivity {W/m-K}
  7688.86,                                ! Density {kg/m3}
  410,                                    ! Specific Heat {J/kg-K}
  0.9,                                    ! Thermal Absorptance
  0.2,                                    ! Solar Absorptance
  0.2;                                    ! Visible Absorptance

OS:Material,
  {f0bbb4eb-dc3c-4270-b72c-ee3e137ce6aa}, ! Handle
  1/2IN Gypsum,                           ! Name
  Smooth,                                 ! Roughness
  0.01271,                                ! Thickness {m}
  0.16,                                   ! Conductivity {W/m-K}
  784.9,                                  ! Density {kg/m3}
  830,                                    ! Specific Heat {J/kg-K}
  0.9,                                    ! Thermal Absorptance
  0.92,                                   ! Solar Absorptance
  0.92;                                   ! Visible Absorptance

OS:Construction,
  {a4a814d7-13ec-4a84-b53f-59d3c0b58ea4}, ! Handle
  90.1-2001 Nonres B6 Ext Wall Metal Building, ! Name
  ,                                       ! Surface Rendering Name
  {0d3f4094-c028-4851-bdb0-b6b9dc5c18bf}, ! Layer 1
  {8faf5d22-d3a8-4434-8c76-311a766be1df}, ! Layer 2
  {f0bbb4eb-dc3c-4270-b72c-ee3e137ce6aa}; ! Layer 3

OS:Material,
  {8faf5d22-d3a8-4434-8c76-311a766be1df}, ! Handle
  Wall Insulation,                        ! Name
  MediumRough,                            ! Roughness
  0.0598725,                              ! Thickness {m}
  0.045,                                  ! Conductivity {W/m-K}
  265,                                    ! Density {kg/m3}
  836.8,                                  ! Specific Heat {J/kg-K}
  0.9,                                    ! Thermal Absorptance
  0.7,                                    ! Solar Absorptance
  0.7;                                    ! Visible Absorptance

OS:ComponentCost:LineItem,
  {b10fa330-763a-44f0-9562-3400341f4ae8}, ! Handle
  90.1-2001 Nonres B6 Ext Wall Metal Building, ! Name
  ,                                       ! Type
  Construction,                           ! Line Item Type
  90.1-2001 Nonres B6 Ext Wall Metal Building, ! Item Name
  ,                                       ! Object End Use Key
  ,                                       ! Quantity {dimensionless}
  98.78,                                  ! Material Cost {$}
  CostPerArea;                            ! Material Cost Units

