
OS:Version,
  {80d3aefe-26f2-409d-8a6f-4531a1593a38}, ! Handle
  0.9.3;                                  ! Version Identifier

OS:Material,
  {c60b058d-bcda-41e5-bb8d-33cc16a3f051}, ! Handle
  Roof Insulation [12],                   ! Name
  MediumRough,                            ! Roughness
  0.167635,                               ! Thickness {m}
  0.049,                                  ! Conductivity {W/m-K}
  265,                                    ! Density {kg/m3}
  836.8,                                  ! Specific Heat {J/kg-K}
  0.9,                                    ! Thermal Absorptance
  0.7,                                    ! Solar Absorptance
  0.7;                                    ! Visible Absorptance

OS:Material,
  {5e44e6fc-7951-42c9-9f84-39797d0bece1}, ! Handle
  Roof Membrane,                          ! Name
  VeryRough,                              ! Roughness
  0.0095,                                 ! Thickness {m}
  0.16,                                   ! Conductivity {W/m-K}
  1121.29,                                ! Density {kg/m3}
  1460,                                   ! Specific Heat {J/kg-K}
  0.9,                                    ! Thermal Absorptance
  0.7,                                    ! Solar Absorptance
  0.7;                                    ! Visible Absorptance

OS:Construction,
  {6dd69dd4-9753-41b0-afa1-60fa13ad7e09}, ! Handle
  90.1-1999 Res B23 Roof IEAD,            ! Name
  ,                                       ! Surface Rendering Name
  {5e44e6fc-7951-42c9-9f84-39797d0bece1}, ! Layer 1
  {c60b058d-bcda-41e5-bb8d-33cc16a3f051}, ! Layer 2
  {bd0fd94f-5207-467b-b9d1-adbf27948738}; ! Layer 3

OS:Material,
  {bd0fd94f-5207-467b-b9d1-adbf27948738}, ! Handle
  Metal Decking,                          ! Name
  MediumSmooth,                           ! Roughness
  0.001524,                               ! Thickness {m}
  45.006,                                 ! Conductivity {W/m-K}
  7680,                                   ! Density {kg/m3}
  418.4,                                  ! Specific Heat {J/kg-K}
  0.9,                                    ! Thermal Absorptance
  0.7,                                    ! Solar Absorptance
  0.3;                                    ! Visible Absorptance

OS:ComponentCost:LineItem,
  {84a3fc65-03bf-4c2b-a854-fd6441464bf2}, ! Handle
  90.1-1999 Res B23 Roof IEAD,            ! Name
  ,                                       ! Type
  Construction,                           ! Line Item Type
  90.1-1999 Res B23 Roof IEAD,            ! Item Name
  ,                                       ! Object End Use Key
  ,                                       ! Quantity {dimensionless}
  52.902,                                 ! Material Cost {$}
  CostPerArea;                            ! Material Cost Units

