
OS:Version,
  {84402206-4f98-4789-8434-a66b783acee3}, ! Handle
  0.9.3;                                  ! Version Identifier

OS:ComponentCost:LineItem,
  {09417cc9-244c-4477-807b-4a14a88110a7}, ! Handle
  90.1-2007 Nonres 5B Attic Floor,        ! Name
  ,                                       ! Type
  Construction,                           ! Line Item Type
  90.1-2007 Nonres 5B Attic Floor,        ! Item Name
  ,                                       ! Object End Use Key
  ,                                       ! Quantity {dimensionless}
  35.009,                                 ! Material Cost {$}
  CostPerArea;                            ! Material Cost Units

OS:Material,
  {ea2818fd-d6ae-4e47-92be-b7d72be31c5d}, ! Handle
  1/2IN Gypsum Bottom,                    ! Name
  Smooth,                                 ! Roughness
  0.01271,                                ! Thickness {m}
  0.16,                                   ! Conductivity {W/m-K}
  784.9,                                  ! Density {kg/m3}
  830,                                    ! Specific Heat {J/kg-K}
  0.9,                                    ! Thermal Absorptance
  0.92,                                   ! Solar Absorptance
  0.92;                                   ! Visible Absorptance

OS:Material,
  {46c597e8-52c4-4d9c-8825-faf782376ea7}, ! Handle
  1/2IN Gypsum Top,                       ! Name
  Smooth,                                 ! Roughness
  0.01271,                                ! Thickness {m}
  0.16,                                   ! Conductivity {W/m-K}
  784.9,                                  ! Density {kg/m3}
  830,                                    ! Specific Heat {J/kg-K}
  0.9,                                    ! Thermal Absorptance
  0.92,                                   ! Solar Absorptance
  0.92;                                   ! Visible Absorptance

OS:Material,
  {f39fc7c5-c77b-441b-b556-3a59dcdd1f4a}, ! Handle
  AtticFloor Insulation [1],              ! Name
  MediumRough,                            ! Roughness
  0.303719,                               ! Thickness {m}
  0.049,                                  ! Conductivity {W/m-K}
  265,                                    ! Density {kg/m3}
  836.8,                                  ! Specific Heat {J/kg-K}
  0.9,                                    ! Thermal Absorptance
  0.7,                                    ! Solar Absorptance
  0.7;                                    ! Visible Absorptance

OS:Construction,
  {fd4808c5-b9ff-4a7e-9453-a1d8d86983f1}, ! Handle
  90.1-2007 Nonres 5B Attic Floor,        ! Name
  ,                                       ! Surface Rendering Name
  {46c597e8-52c4-4d9c-8825-faf782376ea7}, ! Layer 1
  {f39fc7c5-c77b-441b-b556-3a59dcdd1f4a}, ! Layer 2
  {ea2818fd-d6ae-4e47-92be-b7d72be31c5d}; ! Layer 3

