
OS:Version,
  {719f6be0-77d9-4375-9ef9-18abfd5a0873}, ! Handle
  0.9.3;                                  ! Version Identifier

OS:ComponentCost:LineItem,
  {e986e8a0-32bf-4cc4-9d32-319ea2ff25fd}, ! Handle
  Title 24-2008 Nonres 16 Attic Floor,    ! Name
  ,                                       ! Type
  Construction,                           ! Line Item Type
  Title 24-2008 Nonres 16 Attic Floor,    ! Item Name
  ,                                       ! Object End Use Key
  ,                                       ! Quantity {dimensionless}
  33.117,                                 ! Material Cost {$}
  CostPerArea;                            ! Material Cost Units

OS:Material,
  {5fad75d4-5f94-4e21-8d39-7a9663bc5761}, ! Handle
  AtticFloor Insulation [49],             ! Name
  MediumRough,                            ! Roughness
  0.205862,                               ! Thickness {m}
  0.049,                                  ! Conductivity {W/m-K}
  265,                                    ! Density {kg/m3}
  836.8,                                  ! Specific Heat {J/kg-K}
  0.9,                                    ! Thermal Absorptance
  0.7,                                    ! Solar Absorptance
  0.7;                                    ! Visible Absorptance

OS:Material,
  {19d28fd6-789b-433c-8eb4-870a4ef762fd}, ! Handle
  1/2IN Gypsum Bottom,                    ! Name
  Smooth,                                 ! Roughness
  0.01271,                                ! Thickness {m}
  0.16,                                   ! Conductivity {W/m-K}
  784.9,                                  ! Density {kg/m3}
  830,                                    ! Specific Heat {J/kg-K}
  0.9,                                    ! Thermal Absorptance
  0.92,                                   ! Solar Absorptance
  0.92;                                   ! Visible Absorptance

OS:Material,
  {37c0dde8-a9ed-428b-b72b-561581495abc}, ! Handle
  1/2IN Gypsum Top,                       ! Name
  Smooth,                                 ! Roughness
  0.01271,                                ! Thickness {m}
  0.16,                                   ! Conductivity {W/m-K}
  784.9,                                  ! Density {kg/m3}
  830,                                    ! Specific Heat {J/kg-K}
  0.9,                                    ! Thermal Absorptance
  0.92,                                   ! Solar Absorptance
  0.92;                                   ! Visible Absorptance

OS:Construction,
  {58396e00-b1cc-4f08-8d81-4ff7dec15070}, ! Handle
  Title 24-2008 Nonres 16 Attic Floor,    ! Name
  ,                                       ! Surface Rendering Name
  {37c0dde8-a9ed-428b-b72b-561581495abc}, ! Layer 1
  {5fad75d4-5f94-4e21-8d39-7a9663bc5761}, ! Layer 2
  {19d28fd6-789b-433c-8eb4-870a4ef762fd}; ! Layer 3

