
OS:Version,
  {7e73b99c-cc01-4a3e-b02d-7b669c07f337}, ! Handle
  0.9.3;                                  ! Version Identifier

OS:Material,
  {746d94d7-0553-4693-92a3-352ad6327557}, ! Handle
  Roof Insulation [7],                    ! Name
  MediumRough,                            ! Roughness
  0.167563,                               ! Thickness {m}
  0.049,                                  ! Conductivity {W/m-K}
  265,                                    ! Density {kg/m3}
  836.8,                                  ! Specific Heat {J/kg-K}
  0.9,                                    ! Thermal Absorptance
  0.7,                                    ! Solar Absorptance
  0.7;                                    ! Visible Absorptance

OS:ComponentCost:LineItem,
  {2e9011e3-fbfe-4d57-965d-56f7c5b12367}, ! Handle
  90.1-2001 Nonres B24 Roof IEAD,         ! Name
  ,                                       ! Type
  Construction,                           ! Line Item Type
  90.1-2001 Nonres B24 Roof IEAD,         ! Item Name
  ,                                       ! Object End Use Key
  ,                                       ! Quantity {dimensionless}
  52.896,                                 ! Material Cost {$}
  CostPerArea;                            ! Material Cost Units

OS:Material,
  {8655a6c9-6499-49ca-a4a1-6727416377e8}, ! Handle
  Roof Membrane,                          ! Name
  VeryRough,                              ! Roughness
  0.0095,                                 ! Thickness {m}
  0.16,                                   ! Conductivity {W/m-K}
  1121.29,                                ! Density {kg/m3}
  1460,                                   ! Specific Heat {J/kg-K}
  0.9,                                    ! Thermal Absorptance
  0.7,                                    ! Solar Absorptance
  0.7;                                    ! Visible Absorptance

OS:Material,
  {37e80ac6-58e2-44d3-a21a-4cc421e7a9e3}, ! Handle
  Metal Decking,                          ! Name
  MediumSmooth,                           ! Roughness
  0.001524,                               ! Thickness {m}
  45.006,                                 ! Conductivity {W/m-K}
  7680,                                   ! Density {kg/m3}
  418.4,                                  ! Specific Heat {J/kg-K}
  0.9,                                    ! Thermal Absorptance
  0.7,                                    ! Solar Absorptance
  0.3;                                    ! Visible Absorptance

OS:Construction,
  {f08f0728-00e9-4acf-a98e-049fb17a4226}, ! Handle
  90.1-2001 Nonres B24 Roof IEAD,         ! Name
  ,                                       ! Surface Rendering Name
  {8655a6c9-6499-49ca-a4a1-6727416377e8}, ! Layer 1
  {746d94d7-0553-4693-92a3-352ad6327557}, ! Layer 2
  {37e80ac6-58e2-44d3-a21a-4cc421e7a9e3}; ! Layer 3

