
OS:Version,
  {83677a8a-83ac-4887-89fc-41805559d7ef}, ! Handle
  0.9.3;                                  ! Version Identifier

OS:Material,
  {bd5bf0ac-1900-43f4-9330-dbf2d06012c4}, ! Handle
  Metal Decking,                          ! Name
  MediumSmooth,                           ! Roughness
  0.001524,                               ! Thickness {m}
  45.006,                                 ! Conductivity {W/m-K}
  7680,                                   ! Density {kg/m3}
  418.4,                                  ! Specific Heat {J/kg-K}
  0.9,                                    ! Thermal Absorptance
  0.7,                                    ! Solar Absorptance
  0.3;                                    ! Visible Absorptance

OS:ComponentCost:LineItem,
  {0e30aa39-ea09-4cd1-b596-038f659a47d6}, ! Handle
  90.1-2001 Res B25 Roof IEAD,            ! Name
  ,                                       ! Type
  Construction,                           ! Line Item Type
  90.1-2001 Res B25 Roof IEAD,            ! Item Name
  ,                                       ! Object End Use Key
  ,                                       ! Quantity {dimensionless}
  52.896,                                 ! Material Cost {$}
  CostPerArea;                            ! Material Cost Units

OS:Material,
  {65195914-68ba-4b3d-bdcd-36de527e2526}, ! Handle
  Roof Membrane,                          ! Name
  VeryRough,                              ! Roughness
  0.0095,                                 ! Thickness {m}
  0.16,                                   ! Conductivity {W/m-K}
  1121.29,                                ! Density {kg/m3}
  1460,                                   ! Specific Heat {J/kg-K}
  0.9,                                    ! Thermal Absorptance
  0.7,                                    ! Solar Absorptance
  0.7;                                    ! Visible Absorptance

OS:Material,
  {8b7eea36-ac7f-497d-9800-af878e29060c}, ! Handle
  Roof Insulation [7],                    ! Name
  MediumRough,                            ! Roughness
  0.167563,                               ! Thickness {m}
  0.049,                                  ! Conductivity {W/m-K}
  265,                                    ! Density {kg/m3}
  836.8,                                  ! Specific Heat {J/kg-K}
  0.9,                                    ! Thermal Absorptance
  0.7,                                    ! Solar Absorptance
  0.7;                                    ! Visible Absorptance

OS:Construction,
  {258c77aa-0667-4efd-a9d4-44517112136f}, ! Handle
  90.1-2001 Res B25 Roof IEAD,            ! Name
  ,                                       ! Surface Rendering Name
  {65195914-68ba-4b3d-bdcd-36de527e2526}, ! Layer 1
  {8b7eea36-ac7f-497d-9800-af878e29060c}, ! Layer 2
  {bd5bf0ac-1900-43f4-9330-dbf2d06012c4}; ! Layer 3

