
OS:Version,
  {2427df14-f1d3-43ee-9792-d214b1d92279}, ! Handle
  0.9.3;                                  ! Version Identifier

OS:Construction,
  {02cd6f5f-1e6a-41a4-abf7-3d195bba3402}, ! Handle
  90.1-2001 Res B25 Roof IEAD,            ! Name
  ,                                       ! Surface Rendering Name
  {b888f248-5b0f-4941-88f4-7431f2b5337f}, ! Layer 1
  {93f6c54f-7132-4971-b12e-f96b39ba9442}, ! Layer 2
  {19edde85-e4c0-4f12-a724-58131e63541f}; ! Layer 3

OS:Material,
  {b888f248-5b0f-4941-88f4-7431f2b5337f}, ! Handle
  Roof Membrane,                          ! Name
  VeryRough,                              ! Roughness
  0.0095,                                 ! Thickness {m}
  0.16,                                   ! Conductivity {W/m-K}
  1121.29,                                ! Density {kg/m3}
  1460,                                   ! Specific Heat {J/kg-K}
  0.9,                                    ! Thermal Absorptance
  0.7,                                    ! Solar Absorptance
  0.7;                                    ! Visible Absorptance

OS:Material,
  {93f6c54f-7132-4971-b12e-f96b39ba9442}, ! Handle
  Roof Insulation [7],                    ! Name
  MediumRough,                            ! Roughness
  0.167563,                               ! Thickness {m}
  0.049,                                  ! Conductivity {W/m-K}
  265,                                    ! Density {kg/m3}
  836.8,                                  ! Specific Heat {J/kg-K}
  0.9,                                    ! Thermal Absorptance
  0.7,                                    ! Solar Absorptance
  0.7;                                    ! Visible Absorptance

OS:Material,
  {19edde85-e4c0-4f12-a724-58131e63541f}, ! Handle
  Metal Decking,                          ! Name
  MediumSmooth,                           ! Roughness
  0.001524,                               ! Thickness {m}
  45.006,                                 ! Conductivity {W/m-K}
  7680,                                   ! Density {kg/m3}
  418.4,                                  ! Specific Heat {J/kg-K}
  0.9,                                    ! Thermal Absorptance
  0.7,                                    ! Solar Absorptance
  0.3;                                    ! Visible Absorptance

OS:ComponentCost:LineItem,
  {16d8f4c5-f27b-448b-a317-a2c03967cf01}, ! Handle
  90.1-2001 Res B25 Roof IEAD,            ! Name
  ,                                       ! Type
  Construction,                           ! Line Item Type
  90.1-2001 Res B25 Roof IEAD,            ! Item Name
  ,                                       ! Object End Use Key
  ,                                       ! Quantity {dimensionless}
  52.896,                                 ! Material Cost {$}
  CostPerArea;                            ! Material Cost Units

OS:ComponentData,
  {852d3c33-4c15-447a-bca1-d0200dffd14c}, ! Handle
  Component Data 1,                       ! Name
  {7405eec8-a8b8-4f35-a7f9-17e282c8d809}, ! UUID
  {95197a76-02c6-421d-86e3-6e6c1b84701c}, ! Version UUID
  1363981610,                             ! Creation Timestamp
  1363981610,                             ! Version Timestamp
  {02cd6f5f-1e6a-41a4-abf7-3d195bba3402}, ! Name of Object 1
  {b888f248-5b0f-4941-88f4-7431f2b5337f}, ! Name of Object 2
  {93f6c54f-7132-4971-b12e-f96b39ba9442}, ! Name of Object 3
  {19edde85-e4c0-4f12-a724-58131e63541f}, ! Name of Object 4
  {16d8f4c5-f27b-448b-a317-a2c03967cf01}; ! Name of Object 5

