
OS:Version,
  {0e5dab4e-4a5d-4ef1-aa6b-d85931789410}, ! Handle
  0.9.3;                                  ! Version Identifier

OS:Material,
  {67aa6259-c7d7-4a27-bf8d-7dec377c8a52}, ! Handle
  Wood Siding,                            ! Name
  MediumSmooth,                           ! Roughness
  0.01,                                   ! Thickness {m}
  0.11,                                   ! Conductivity {W/m-K}
  544.62,                                 ! Density {kg/m3}
  1210,                                   ! Specific Heat {J/kg-K}
  0.9,                                    ! Thermal Absorptance
  0.78,                                   ! Solar Absorptance
  0.78;                                   ! Visible Absorptance

OS:ComponentCost:LineItem,
  {df7cde86-e505-43c3-aa61-736194b1a9fb}, ! Handle
  90.1-2001 Res B18 Ext Wall Wood-Framed and Other, ! Name
  ,                                       ! Type
  Construction,                           ! Line Item Type
  90.1-2001 Res B18 Ext Wall Wood-Framed and Other, ! Item Name
  ,                                       ! Object End Use Key
  ,                                       ! Quantity {dimensionless}
  73.056,                                 ! Material Cost {$}
  CostPerArea;                            ! Material Cost Units

OS:Material,
  {bbbf324b-03bc-4101-a17d-e91449e4a027}, ! Handle
  1/2IN Gypsum,                           ! Name
  Smooth,                                 ! Roughness
  0.01271,                                ! Thickness {m}
  0.16,                                   ! Conductivity {W/m-K}
  784.9,                                  ! Density {kg/m3}
  830,                                    ! Specific Heat {J/kg-K}
  0.9,                                    ! Thermal Absorptance
  0.92,                                   ! Solar Absorptance
  0.92;                                   ! Visible Absorptance

OS:Construction,
  {0657ae18-837c-4045-afe9-7e9e3cfe7a2e}, ! Handle
  90.1-2001 Res B18 Ext Wall Wood-Framed and Other, ! Name
  ,                                       ! Surface Rendering Name
  {67aa6259-c7d7-4a27-bf8d-7dec377c8a52}, ! Layer 1
  {2620500b-5615-42bf-986b-85d4cbdfed92}, ! Layer 2
  {bbbf324b-03bc-4101-a17d-e91449e4a027}; ! Layer 3

OS:Material,
  {2620500b-5615-42bf-986b-85d4cbdfed92}, ! Handle
  Wall Insulation [2],                    ! Name
  MediumRough,                            ! Roughness
  0.0746874,                              ! Thickness {m}
  0.045,                                  ! Conductivity {W/m-K}
  265,                                    ! Density {kg/m3}
  836.8,                                  ! Specific Heat {J/kg-K}
  0.9,                                    ! Thermal Absorptance
  0.7,                                    ! Solar Absorptance
  0.7;                                    ! Visible Absorptance

