
OS:Version,
  {2f341c9b-b7a5-4cf2-aa3b-7ec9b646ac1f}, ! Handle
  0.9.3;                                  ! Version Identifier

OS:Material,
  {68403969-fbd9-4298-8605-d12b5fcba5a3}, ! Handle
  1/2IN Gypsum,                           ! Name
  Smooth,                                 ! Roughness
  0.01271,                                ! Thickness {m}
  0.16,                                   ! Conductivity {W/m-K}
  784.9,                                  ! Density {kg/m3}
  830,                                    ! Specific Heat {J/kg-K}
  0.9,                                    ! Thermal Absorptance
  0.92,                                   ! Solar Absorptance
  0.92;                                   ! Visible Absorptance

OS:Material,
  {4bc5b1a7-e88e-4408-b3fc-19ef229830bb}, ! Handle
  Wall Insulation [14],                   ! Name
  MediumRough,                            ! Roughness
  0.0905233,                              ! Thickness {m}
  0.0432,                                 ! Conductivity {W/m-K}
  91,                                     ! Density {kg/m3}
  837,                                    ! Specific Heat {J/kg-K}
  0.9,                                    ! Thermal Absorptance
  0.5,                                    ! Solar Absorptance
  0.5;                                    ! Visible Absorptance

OS:ComponentCost:LineItem,
  {a6ee36cc-5c93-492e-ad73-b514174c2794}, ! Handle
  90.1-1999 Res B23 Ext Wall Mass,        ! Name
  ,                                       ! Type
  Construction,                           ! Line Item Type
  90.1-1999 Res B23 Ext Wall Mass,        ! Item Name
  ,                                       ! Object End Use Key
  ,                                       ! Quantity {dimensionless}
  70.253,                                 ! Material Cost {$}
  CostPerArea;                            ! Material Cost Units

OS:Construction,
  {361d8cb1-c1b2-4717-8dfb-2f841681c698}, ! Handle
  90.1-1999 Res B23 Ext Wall Mass,        ! Name
  ,                                       ! Surface Rendering Name
  {01e4d446-d570-4984-9d42-cf1d04a3090a}, ! Layer 1
  {ec03cee5-0872-48bb-a647-3f4c3a7e0959}, ! Layer 2
  {4bc5b1a7-e88e-4408-b3fc-19ef229830bb}, ! Layer 3
  {68403969-fbd9-4298-8605-d12b5fcba5a3}; ! Layer 4

OS:Material,
  {01e4d446-d570-4984-9d42-cf1d04a3090a}, ! Handle
  1IN Stucco,                             ! Name
  Smooth,                                 ! Roughness
  0.0253,                                 ! Thickness {m}
  0.6918,                                 ! Conductivity {W/m-K}
  1858,                                   ! Density {kg/m3}
  837,                                    ! Specific Heat {J/kg-K}
  0.9,                                    ! Thermal Absorptance
  0.92,                                   ! Solar Absorptance
  0.92;                                   ! Visible Absorptance

OS:Material,
  {ec03cee5-0872-48bb-a647-3f4c3a7e0959}, ! Handle
  8IN Concrete HW,                        ! Name
  MediumRough,                            ! Roughness
  0.2033,                                 ! Thickness {m}
  1.7296,                                 ! Conductivity {W/m-K}
  2243,                                   ! Density {kg/m3}
  837,                                    ! Specific Heat {J/kg-K}
  0.9,                                    ! Thermal Absorptance
  0.65,                                   ! Solar Absorptance
  0.65;                                   ! Visible Absorptance

