
OS:Version,
  {5b4d5dc7-a29c-4b2e-bdb0-710b8e5fee69}, ! Handle
  0.9.3;                                  ! Version Identifier

OS:Construction,
  {6274ba0f-0475-490b-8dad-398a58cccd52}, ! Handle
  90.1-1999 Res B23 Ext Wall Mass,        ! Name
  ,                                       ! Surface Rendering Name
  {b419a271-7a24-4989-a2bb-d16376d836c5}, ! Layer 1
  {3cd82142-4f19-4f81-a90b-8274f916fd1e}, ! Layer 2
  {e73ad416-5ec5-4f95-943c-d810aa4e1090}, ! Layer 3
  {3b6a1ce5-c7db-4816-bbd2-b09986fe6c77}; ! Layer 4

OS:Material,
  {b419a271-7a24-4989-a2bb-d16376d836c5}, ! Handle
  1IN Stucco,                             ! Name
  Smooth,                                 ! Roughness
  0.0253,                                 ! Thickness {m}
  0.6918,                                 ! Conductivity {W/m-K}
  1858,                                   ! Density {kg/m3}
  837,                                    ! Specific Heat {J/kg-K}
  0.9,                                    ! Thermal Absorptance
  0.92,                                   ! Solar Absorptance
  0.92;                                   ! Visible Absorptance

OS:Material,
  {3cd82142-4f19-4f81-a90b-8274f916fd1e}, ! Handle
  8IN Concrete HW,                        ! Name
  MediumRough,                            ! Roughness
  0.2033,                                 ! Thickness {m}
  1.7296,                                 ! Conductivity {W/m-K}
  2243,                                   ! Density {kg/m3}
  837,                                    ! Specific Heat {J/kg-K}
  0.9,                                    ! Thermal Absorptance
  0.65,                                   ! Solar Absorptance
  0.65;                                   ! Visible Absorptance

OS:Material,
  {e73ad416-5ec5-4f95-943c-d810aa4e1090}, ! Handle
  Wall Insulation [14],                   ! Name
  MediumRough,                            ! Roughness
  0.0905233,                              ! Thickness {m}
  0.0432,                                 ! Conductivity {W/m-K}
  91,                                     ! Density {kg/m3}
  837,                                    ! Specific Heat {J/kg-K}
  0.9,                                    ! Thermal Absorptance
  0.5,                                    ! Solar Absorptance
  0.5;                                    ! Visible Absorptance

OS:Material,
  {3b6a1ce5-c7db-4816-bbd2-b09986fe6c77}, ! Handle
  1/2IN Gypsum,                           ! Name
  Smooth,                                 ! Roughness
  0.01271,                                ! Thickness {m}
  0.16,                                   ! Conductivity {W/m-K}
  784.9,                                  ! Density {kg/m3}
  830,                                    ! Specific Heat {J/kg-K}
  0.9,                                    ! Thermal Absorptance
  0.92,                                   ! Solar Absorptance
  0.92;                                   ! Visible Absorptance

OS:ComponentCost:LineItem,
  {d2a16222-b035-4a4e-93f9-35a361e18071}, ! Handle
  90.1-1999 Res B23 Ext Wall Mass,        ! Name
  ,                                       ! Type
  Construction,                           ! Line Item Type
  90.1-1999 Res B23 Ext Wall Mass,        ! Item Name
  ,                                       ! Object End Use Key
  ,                                       ! Quantity {dimensionless}
  70.253,                                 ! Material Cost {$}
  CostPerArea;                            ! Material Cost Units

OS:ComponentData,
  {bdd3b2a3-8daf-4598-9daf-82c8ab11a46d}, ! Handle
  Component Data 1,                       ! Name
  {eb513951-99ca-4845-b580-7d18ce8ed8eb}, ! UUID
  {94bcc9c9-fed8-4518-8078-98d01501a310}, ! Version UUID
  1363981265,                             ! Creation Timestamp
  1363981265,                             ! Version Timestamp
  {6274ba0f-0475-490b-8dad-398a58cccd52}, ! Name of Object 1
  {b419a271-7a24-4989-a2bb-d16376d836c5}, ! Name of Object 2
  {3cd82142-4f19-4f81-a90b-8274f916fd1e}, ! Name of Object 3
  {e73ad416-5ec5-4f95-943c-d810aa4e1090}, ! Name of Object 4
  {3b6a1ce5-c7db-4816-bbd2-b09986fe6c77}, ! Name of Object 5
  {d2a16222-b035-4a4e-93f9-35a361e18071}; ! Name of Object 6

