
OS:Version,
  {e32b336d-2145-4937-bdf7-2d509cb4a61f}, ! Handle
  0.9.3;                                  ! Version Identifier

OS:Construction,
  {f8d810e0-0017-4e0b-999d-9d52c7c755de}, ! Handle
  AEDG-SmOffice 5B Int Wall,              ! Name
  ,                                       ! Surface Rendering Name
  {0fba5962-cb52-4780-a01c-0ecb3f960bf2}, ! Layer 1
  {0fba5962-cb52-4780-a01c-0ecb3f960bf2}; ! Layer 2

OS:Material,
  {0fba5962-cb52-4780-a01c-0ecb3f960bf2}, ! Handle
  GP01 1/2 GYPSUM,                        ! Name
  Smooth,                                 ! Roughness
  0.01271,                                ! Thickness {m}
  0.16,                                   ! Conductivity {W/m-K}
  800,                                    ! Density {kg/m3}
  1090,                                   ! Specific Heat {J/kg-K}
  0.9,                                    ! Thermal Absorptance
  0.7,                                    ! Solar Absorptance
  0.5;                                    ! Visible Absorptance

OS:ComponentCost:LineItem,
  {4a74e5d0-5ed6-422e-8a27-56312434b481}, ! Handle
  AEDG-SmOffice 5B Int Wall,              ! Name
  ,                                       ! Type
  Construction,                           ! Line Item Type
  AEDG-SmOffice 5B Int Wall,              ! Item Name
  ,                                       ! Object End Use Key
  ,                                       ! Quantity {dimensionless}
  0,                                      ! Material Cost {$}
  CostPerArea;                            ! Material Cost Units

OS:Material,
  {51163b0b-b853-4578-835e-009ff658cdb6}, ! Handle
  GP01 1/2 GYPSUM 1,                      ! Name
  Smooth,                                 ! Roughness
  0.01271,                                ! Thickness {m}
  0.16,                                   ! Conductivity {W/m-K}
  800,                                    ! Density {kg/m3}
  1090,                                   ! Specific Heat {J/kg-K}
  0.9,                                    ! Thermal Absorptance
  0.7,                                    ! Solar Absorptance
  0.5;                                    ! Visible Absorptance

