
OS:Version,
  {20dc73e9-41c4-4e58-880d-d014ccf39ecb}, ! Handle
  0.9.3;                                  ! Version Identifier

OS:Construction,
  {f8494659-80a5-4233-baa2-cd2248602458}, ! Handle
  AEDG-SmOffice 5B Int Wall,              ! Name
  ,                                       ! Surface Rendering Name
  {0e5b1ae9-d7cf-4a8a-aaf5-004aed537923}, ! Layer 1
  {0e5b1ae9-d7cf-4a8a-aaf5-004aed537923}; ! Layer 2

OS:Material,
  {0e5b1ae9-d7cf-4a8a-aaf5-004aed537923}, ! Handle
  GP01 1/2 GYPSUM,                        ! Name
  Smooth,                                 ! Roughness
  0.01271,                                ! Thickness {m}
  0.16,                                   ! Conductivity {W/m-K}
  800,                                    ! Density {kg/m3}
  1090,                                   ! Specific Heat {J/kg-K}
  0.9,                                    ! Thermal Absorptance
  0.7,                                    ! Solar Absorptance
  0.5;                                    ! Visible Absorptance

OS:ComponentCost:LineItem,
  {472ba294-b006-48f3-8f28-a62dc90bde48}, ! Handle
  AEDG-SmOffice 5B Int Wall,              ! Name
  ,                                       ! Type
  Construction,                           ! Line Item Type
  AEDG-SmOffice 5B Int Wall,              ! Item Name
  ,                                       ! Object End Use Key
  ,                                       ! Quantity {dimensionless}
  0,                                      ! Material Cost {$}
  CostPerArea;                            ! Material Cost Units

OS:ComponentData,
  {a002f3e4-bb7d-40c6-93e7-ceea3e991076}, ! Handle
  Component Data 1,                       ! Name
  {f6a27701-0420-4123-a9b1-771056356ea6}, ! UUID
  {408f02de-2c51-4658-870d-2f369d407c5d}, ! Version UUID
  1363981953,                             ! Creation Timestamp
  1363981953,                             ! Version Timestamp
  {f8494659-80a5-4233-baa2-cd2248602458}, ! Name of Object 1
  {0e5b1ae9-d7cf-4a8a-aaf5-004aed537923}, ! Name of Object 2
  {472ba294-b006-48f3-8f28-a62dc90bde48}; ! Name of Object 3

