
OS:Version,
  {6a55aaae-4910-4d8b-993a-9f2194d49322}, ! Handle
  0.9.3;                                  ! Version Identifier

OS:ComponentCost:LineItem,
  {24149b98-50d8-4007-908d-1937590c4560}, ! Handle
  90.1 Windows Window Fixed 2445 Brk-GrnMpr-Ins-ClrSue, ! Name
  ,                                       ! Type
  Construction,                           ! Line Item Type
  90.1 Windows Window Fixed 2445 Brk-GrnMpr-Ins-ClrSue, ! Item Name
  ,                                       ! Object End Use Key
  ,                                       ! Quantity {dimensionless}
  0,                                      ! Material Cost {$}
  CostPerArea;                            ! Material Cost Units

OS:WindowMaterial:Glazing,
  {b3d6f5ee-ccb7-419d-9c6a-053e87908b7c}, ! Handle
  Theoretical Glass [528],                ! Name
  SpectralAverage,                        ! Optical Data Type
  ,                                       ! Window Glass Spectral Data Set Name
  0.003,                                  ! Thickness {m}
  0.216183,                               ! Solar Transmittance at Normal Incidence
  0.733817,                               ! Front Side Solar Reflectance at Normal Incidence
  0.733817,                               ! Back Side Solar Reflectance at Normal Incidence
  0.310844,                               ! Visible Transmittance at Normal Incidence
  0.639156,                               ! Front Side Visible Reflectance at Normal Incidence
  0.639156,                               ! Back Side Visible Reflectance at Normal Incidence
  0,                                      ! Infrared Transmittance at Normal Incidence
  0.9,                                    ! Front Side Infrared Hemispherical Emissivity
  0.9,                                    ! Back Side Infrared Hemispherical Emissivity
  0.0116204;                              ! Conductivity {W/m-K}

OS:Construction,
  {4f42c065-ec09-4914-9069-d0f72bcc22aa}, ! Handle
  90.1 Windows Window Fixed 2445 Brk-GrnMpr-Ins-ClrSue, ! Name
  ,                                       ! Surface Rendering Name
  {b3d6f5ee-ccb7-419d-9c6a-053e87908b7c}; ! Layer 1

