
OS:Version,
  {5b1a3287-fbff-47d4-8a10-ef9b59db83ff}, ! Handle
  0.9.3;                                  ! Version Identifier

OS:Material,
  {5bf51825-ddfb-4014-b569-4b29a9c80896}, ! Handle
  Wood Shingles,                          ! Name
  VeryRough,                              ! Roughness
  0.0178,                                 ! Thickness {m}
  0.115,                                  ! Conductivity {W/m-K}
  513,                                    ! Density {kg/m3}
  1255,                                   ! Specific Heat {J/kg-K}
  0.9,                                    ! Thermal Absorptance
  0.78,                                   ! Solar Absorptance
  0.78;                                   ! Visible Absorptance

OS:ComponentCost:LineItem,
  {e91eecb6-bb70-44a2-8219-9df759b034bf}, ! Handle
  90.1-1999 Nonres B8 Roof Attic and Other, ! Name
  ,                                       ! Type
  Construction,                           ! Line Item Type
  90.1-1999 Nonres B8 Roof Attic and Other, ! Item Name
  ,                                       ! Object End Use Key
  ,                                       ! Quantity {dimensionless}
  33.39,                                  ! Material Cost {$}
  CostPerArea;                            ! Material Cost Units

OS:Construction,
  {14dec761-0c97-4909-b0ec-2feb6c3f2815}, ! Handle
  90.1-1999 Nonres B8 Roof Attic and Other, ! Name
  ,                                       ! Surface Rendering Name
  {5bf51825-ddfb-4014-b569-4b29a9c80896}, ! Layer 1
  {af35ae55-ef50-43f1-add6-67cf1930e09c}, ! Layer 2
  {c6b1608c-f80c-44fd-85d6-edefaee59fcd}, ! Layer 3
  {5abdf967-02ac-4003-aa11-74559adf7fd8}; ! Layer 4

OS:Material,
  {af35ae55-ef50-43f1-add6-67cf1930e09c}, ! Handle
  1IN Wood Decking,                       ! Name
  MediumSmooth,                           ! Roughness
  0.0254,                                 ! Thickness {m}
  0.1211,                                 ! Conductivity {W/m-K}
  593,                                    ! Density {kg/m3}
  2510,                                   ! Specific Heat {J/kg-K}
  0.9,                                    ! Thermal Absorptance
  0.78,                                   ! Solar Absorptance
  0.78;                                   ! Visible Absorptance

OS:Material,
  {c6b1608c-f80c-44fd-85d6-edefaee59fcd}, ! Handle
  Roof Insulation [2],                    ! Name
  MediumRough,                            ! Roughness
  0.221604,                               ! Thickness {m}
  0.049,                                  ! Conductivity {W/m-K}
  265,                                    ! Density {kg/m3}
  836.8,                                  ! Specific Heat {J/kg-K}
  0.9,                                    ! Thermal Absorptance
  0.7,                                    ! Solar Absorptance
  0.7;                                    ! Visible Absorptance

OS:Material,
  {5abdf967-02ac-4003-aa11-74559adf7fd8}, ! Handle
  1/2IN Gypsum,                           ! Name
  Smooth,                                 ! Roughness
  0.01271,                                ! Thickness {m}
  0.16,                                   ! Conductivity {W/m-K}
  784.9,                                  ! Density {kg/m3}
  830,                                    ! Specific Heat {J/kg-K}
  0.9,                                    ! Thermal Absorptance
  0.92,                                   ! Solar Absorptance
  0.92;                                   ! Visible Absorptance

