
OS:Version,
  {aa9be057-8614-4fce-8d51-8fe0d4e9b482}, ! Handle
  0.9.3;                                  ! Version Identifier

OS:Construction,
  {00b47c3f-8ec3-4a42-b488-d5e9699483f9}, ! Handle
  90.1-1999 Res B11 Skylight without Curb, ! Name
  ,                                       ! Surface Rendering Name
  {2e22d9ed-a1aa-4516-91a6-eef2f38e9c93}; ! Layer 1

OS:WindowMaterial:Glazing,
  {2e22d9ed-a1aa-4516-91a6-eef2f38e9c93}, ! Handle
  Theoretical Glass [87],                 ! Name
  SpectralAverage,                        ! Optical Data Type
  ,                                       ! Window Glass Spectral Data Set Name
  0.003,                                  ! Thickness {m}
  0.343048,                               ! Solar Transmittance at Normal Incidence
  0.606952,                               ! Front Side Solar Reflectance at Normal Incidence
  0.606952,                               ! Back Side Solar Reflectance at Normal Incidence
  0.360158,                               ! Visible Transmittance at Normal Incidence
  0.589842,                               ! Front Side Visible Reflectance at Normal Incidence
  0.589842,                               ! Back Side Visible Reflectance at Normal Incidence
  0,                                      ! Infrared Transmittance at Normal Incidence
  0.9,                                    ! Front Side Infrared Hemispherical Emissivity
  0.9,                                    ! Back Side Infrared Hemispherical Emissivity
  0.0324872;                              ! Conductivity {W/m-K}

OS:ComponentCost:LineItem,
  {e50c8ced-4e96-4867-946b-6c2d01055526}, ! Handle
  90.1-1999 Res B11 Skylight without Curb, ! Name
  ,                                       ! Type
  Construction,                           ! Line Item Type
  90.1-1999 Res B11 Skylight without Curb, ! Item Name
  ,                                       ! Object End Use Key
  ,                                       ! Quantity {dimensionless}
  514.818,                                ! Material Cost {$}
  CostPerArea;                            ! Material Cost Units

OS:ComponentData,
  {a04f3ad7-ff38-4fa8-b540-be80978b2efd}, ! Handle
  Component Data 1,                       ! Name
  {4d95e6b3-3a0d-4ebc-8c98-7e565188cfdd}, ! UUID
  {e3081621-c31f-4b89-a883-a6a2b87b3228}, ! Version UUID
  1363981214,                             ! Creation Timestamp
  1363981214,                             ! Version Timestamp
  {00b47c3f-8ec3-4a42-b488-d5e9699483f9}, ! Name of Object 1
  {2e22d9ed-a1aa-4516-91a6-eef2f38e9c93}, ! Name of Object 2
  {e50c8ced-4e96-4867-946b-6c2d01055526}; ! Name of Object 3

