
OS:Version,
  {b4e3328b-c439-4cfe-b7e7-881fca79e5bd}, ! Handle
  0.9.3;                                  ! Version Identifier

OS:Construction,
  {55418e6c-cdd2-425e-8645-2244af7e2c34}, ! Handle
  90.1-1999 Res B11 Skylight without Curb, ! Name
  ,                                       ! Surface Rendering Name
  {9a9d9275-5083-4cae-9d40-8de9a5dce746}; ! Layer 1

OS:WindowMaterial:Glazing,
  {9a9d9275-5083-4cae-9d40-8de9a5dce746}, ! Handle
  Theoretical Glass [87],                 ! Name
  SpectralAverage,                        ! Optical Data Type
  ,                                       ! Window Glass Spectral Data Set Name
  0.003,                                  ! Thickness {m}
  0.343048,                               ! Solar Transmittance at Normal Incidence
  0.606952,                               ! Front Side Solar Reflectance at Normal Incidence
  0.606952,                               ! Back Side Solar Reflectance at Normal Incidence
  0.360158,                               ! Visible Transmittance at Normal Incidence
  0.589842,                               ! Front Side Visible Reflectance at Normal Incidence
  0.589842,                               ! Back Side Visible Reflectance at Normal Incidence
  0,                                      ! Infrared Transmittance at Normal Incidence
  0.9,                                    ! Front Side Infrared Hemispherical Emissivity
  0.9,                                    ! Back Side Infrared Hemispherical Emissivity
  0.0324872;                              ! Conductivity {W/m-K}

OS:ComponentCost:LineItem,
  {2b6a4ab7-ae64-44a3-af20-f2334a22bf1b}, ! Handle
  90.1-1999 Res B11 Skylight without Curb, ! Name
  ,                                       ! Type
  Construction,                           ! Line Item Type
  90.1-1999 Res B11 Skylight without Curb, ! Item Name
  ,                                       ! Object End Use Key
  ,                                       ! Quantity {dimensionless}
  514.818,                                ! Material Cost {$}
  CostPerArea;                            ! Material Cost Units

