
OS:Version,
  {cdf74394-8a2a-45f8-913a-f530a4fbe610}, ! Handle
  0.9.3;                                  ! Version Identifier

OS:ComponentCost:LineItem,
  {c88cad11-3922-4bd7-992c-3962c2f41a2d}, ! Handle
  Title 24-2008 Nonres 13 Int Wall,       ! Name
  ,                                       ! Type
  Construction,                           ! Line Item Type
  Title 24-2008 Nonres 13 Int Wall,       ! Item Name
  ,                                       ! Object End Use Key
  ,                                       ! Quantity {dimensionless}
  0,                                      ! Material Cost {$}
  CostPerArea;                            ! Material Cost Units

OS:Material,
  {bb5f4b6c-6d13-439d-aa36-9db0d7071d5e}, ! Handle
  GP01 1/2 GYPSUM 1,                      ! Name
  Smooth,                                 ! Roughness
  0.01271,                                ! Thickness {m}
  0.16,                                   ! Conductivity {W/m-K}
  800,                                    ! Density {kg/m3}
  1090,                                   ! Specific Heat {J/kg-K}
  0.9,                                    ! Thermal Absorptance
  0.7,                                    ! Solar Absorptance
  0.5;                                    ! Visible Absorptance

OS:Construction,
  {b7f9a95e-74b0-4ab6-9b15-11ba8a725c14}, ! Handle
  Title 24-2008 Nonres 13 Int Wall,       ! Name
  ,                                       ! Surface Rendering Name
  {a64b98ba-5db7-4991-9b08-9753192df9f9}, ! Layer 1
  {a64b98ba-5db7-4991-9b08-9753192df9f9}; ! Layer 2

OS:Material,
  {a64b98ba-5db7-4991-9b08-9753192df9f9}, ! Handle
  GP01 1/2 GYPSUM,                        ! Name
  Smooth,                                 ! Roughness
  0.01271,                                ! Thickness {m}
  0.16,                                   ! Conductivity {W/m-K}
  800,                                    ! Density {kg/m3}
  1090,                                   ! Specific Heat {J/kg-K}
  0.9,                                    ! Thermal Absorptance
  0.7,                                    ! Solar Absorptance
  0.5;                                    ! Visible Absorptance

