
OS:Version,
  {3f3e3c13-6253-41e7-ac1b-c6051109ce07}, ! Handle
  0.9.3;                                  ! Version Identifier

OS:Construction,
  {1a107225-8f46-4c75-a495-17de0469e6ca}, ! Handle
  Title 24-2008 Nonres 13 Int Wall,       ! Name
  ,                                       ! Surface Rendering Name
  {85b898a9-cf62-4ac6-93fa-2be1aa2ce177}, ! Layer 1
  {85b898a9-cf62-4ac6-93fa-2be1aa2ce177}; ! Layer 2

OS:Material,
  {85b898a9-cf62-4ac6-93fa-2be1aa2ce177}, ! Handle
  GP01 1/2 GYPSUM,                        ! Name
  Smooth,                                 ! Roughness
  0.01271,                                ! Thickness {m}
  0.16,                                   ! Conductivity {W/m-K}
  800,                                    ! Density {kg/m3}
  1090,                                   ! Specific Heat {J/kg-K}
  0.9,                                    ! Thermal Absorptance
  0.7,                                    ! Solar Absorptance
  0.5;                                    ! Visible Absorptance

OS:ComponentCost:LineItem,
  {1c9b4f96-acf1-4e08-92e9-83b284df8e68}, ! Handle
  Title 24-2008 Nonres 13 Int Wall,       ! Name
  ,                                       ! Type
  Construction,                           ! Line Item Type
  Title 24-2008 Nonres 13 Int Wall,       ! Item Name
  ,                                       ! Object End Use Key
  ,                                       ! Quantity {dimensionless}
  0,                                      ! Material Cost {$}
  CostPerArea;                            ! Material Cost Units

OS:ComponentData,
  {90534f5e-c4b2-4a51-b63e-a8c04f9aaf31}, ! Handle
  Component Data 1,                       ! Name
  {3fcffb04-6405-483a-ab3a-d0e4cdc492b8}, ! UUID
  {7483276b-2336-4c1f-8486-a4b044430816}, ! Version UUID
  1363982087,                             ! Creation Timestamp
  1363982087,                             ! Version Timestamp
  {1a107225-8f46-4c75-a495-17de0469e6ca}, ! Name of Object 1
  {85b898a9-cf62-4ac6-93fa-2be1aa2ce177}, ! Name of Object 2
  {1c9b4f96-acf1-4e08-92e9-83b284df8e68}; ! Name of Object 3

