
OS:Version,
  {f576c5ad-454d-43c5-9fab-22b1b9e0d8fb}, ! Handle
  0.9.3;                                  ! Version Identifier

OS:Construction,
  {08671bd6-c695-4b5b-9d56-90fcca9c9769}, ! Handle
  189.1-2009 Nonres 7A Roof Metal Building, ! Name
  ,                                       ! Surface Rendering Name
  {b4f90cf9-f93f-4d84-bc21-3de6c6bb46e7}, ! Layer 1
  {1ed7c056-f084-4764-a21b-7958ebe9a476}; ! Layer 2

OS:Material,
  {b4f90cf9-f93f-4d84-bc21-3de6c6bb46e7}, ! Handle
  Metal Roofing,                          ! Name
  MediumSmooth,                           ! Roughness
  0.001524,                               ! Thickness {m}
  45.006,                                 ! Conductivity {W/m-K}
  7680,                                   ! Density {kg/m3}
  418.4,                                  ! Specific Heat {J/kg-K}
  0.9,                                    ! Thermal Absorptance
  0.7,                                    ! Solar Absorptance
  0.3;                                    ! Visible Absorptance

OS:Material,
  {1ed7c056-f084-4764-a21b-7958ebe9a476}, ! Handle
  Roof Insulation [27],                   ! Name
  MediumRough,                            ! Roughness
  0.297033,                               ! Thickness {m}
  0.049,                                  ! Conductivity {W/m-K}
  265,                                    ! Density {kg/m3}
  836.8,                                  ! Specific Heat {J/kg-K}
  0.9,                                    ! Thermal Absorptance
  0.7,                                    ! Solar Absorptance
  0.7;                                    ! Visible Absorptance

OS:ComponentCost:LineItem,
  {456512be-c960-471d-a638-746378c5c34c}, ! Handle
  189.1-2009 Nonres 7A Roof Metal Building, ! Name
  ,                                       ! Type
  Construction,                           ! Line Item Type
  189.1-2009 Nonres 7A Roof Metal Building, ! Item Name
  ,                                       ! Object End Use Key
  ,                                       ! Quantity {dimensionless}
  51.833,                                 ! Material Cost {$}
  CostPerArea;                            ! Material Cost Units

OS:ComponentData,
  {8908bc80-6390-4c2b-b151-925546800d62}, ! Handle
  Component Data 1,                       ! Name
  {a9e306e1-5757-4a6d-b51f-df0900552464}, ! UUID
  {5abdec6f-0062-4d26-8065-e73e1127288b}, ! Version UUID
  1363980950,                             ! Creation Timestamp
  1363980950,                             ! Version Timestamp
  {08671bd6-c695-4b5b-9d56-90fcca9c9769}, ! Name of Object 1
  {b4f90cf9-f93f-4d84-bc21-3de6c6bb46e7}, ! Name of Object 2
  {1ed7c056-f084-4764-a21b-7958ebe9a476}, ! Name of Object 3
  {456512be-c960-471d-a638-746378c5c34c}; ! Name of Object 4

