
OS:Version,
  {9a633ef7-21ae-4f2b-a2f3-f05fd84de720}, ! Handle
  0.9.3;                                  ! Version Identifier

OS:Construction,
  {2e06e4bd-bea1-480c-94d2-d6843d08d9e2}, ! Handle
  189.1-2009 Nonres 7A Roof Metal Building, ! Name
  ,                                       ! Surface Rendering Name
  {b9a1104d-639e-4c38-8035-78afd7d5d81b}, ! Layer 1
  {76389de7-eba0-400f-abe6-32203b25ec43}; ! Layer 2

OS:Material,
  {b9a1104d-639e-4c38-8035-78afd7d5d81b}, ! Handle
  Metal Roofing,                          ! Name
  MediumSmooth,                           ! Roughness
  0.001524,                               ! Thickness {m}
  45.006,                                 ! Conductivity {W/m-K}
  7680,                                   ! Density {kg/m3}
  418.4,                                  ! Specific Heat {J/kg-K}
  0.9,                                    ! Thermal Absorptance
  0.7,                                    ! Solar Absorptance
  0.3;                                    ! Visible Absorptance

OS:Material,
  {76389de7-eba0-400f-abe6-32203b25ec43}, ! Handle
  Roof Insulation [27],                   ! Name
  MediumRough,                            ! Roughness
  0.297033,                               ! Thickness {m}
  0.049,                                  ! Conductivity {W/m-K}
  265,                                    ! Density {kg/m3}
  836.8,                                  ! Specific Heat {J/kg-K}
  0.9,                                    ! Thermal Absorptance
  0.7,                                    ! Solar Absorptance
  0.7;                                    ! Visible Absorptance

OS:ComponentCost:LineItem,
  {389d3380-f2ba-40ea-9ccf-b2323416a093}, ! Handle
  189.1-2009 Nonres 7A Roof Metal Building, ! Name
  ,                                       ! Type
  Construction,                           ! Line Item Type
  189.1-2009 Nonres 7A Roof Metal Building, ! Item Name
  ,                                       ! Object End Use Key
  ,                                       ! Quantity {dimensionless}
  51.833,                                 ! Material Cost {$}
  CostPerArea;                            ! Material Cost Units

