
OS:Version,
  {c9527f7b-47e9-406e-bbc2-b7bb8eafa4a5}, ! Handle
  0.9.3;                                  ! Version Identifier

OS:Construction,
  {fc86e778-8f4d-4b82-b392-d7e16d4506f8}, ! Handle
  90.1-1999 Nonres B24 Window Fixed,      ! Name
  ,                                       ! Surface Rendering Name
  {ad6eace4-e51c-4760-bcc3-999c80f8e07e}; ! Layer 1

OS:WindowMaterial:Glazing,
  {ad6eace4-e51c-4760-bcc3-999c80f8e07e}, ! Handle
  Theoretical Glass [44],                 ! Name
  SpectralAverage,                        ! Optical Data Type
  ,                                       ! Window Glass Spectral Data Set Name
  0.003,                                  ! Thickness {m}
  0.455617,                               ! Solar Transmittance at Normal Incidence
  0.494383,                               ! Front Side Solar Reflectance at Normal Incidence
  0.494383,                               ! Back Side Solar Reflectance at Normal Incidence
  0.493419,                               ! Visible Transmittance at Normal Incidence
  0.456581,                               ! Front Side Visible Reflectance at Normal Incidence
  0.456581,                               ! Back Side Visible Reflectance at Normal Incidence
  0,                                      ! Infrared Transmittance at Normal Incidence
  0.9,                                    ! Front Side Infrared Hemispherical Emissivity
  0.9,                                    ! Back Side Infrared Hemispherical Emissivity
  0.00882224;                             ! Conductivity {W/m-K}

OS:ComponentCost:LineItem,
  {0a0bdc0f-beee-45e0-b8ef-177cc5f6fa34}, ! Handle
  90.1-1999 Nonres B24 Window Fixed,      ! Name
  ,                                       ! Type
  Construction,                           ! Line Item Type
  90.1-1999 Nonres B24 Window Fixed,      ! Item Name
  ,                                       ! Object End Use Key
  ,                                       ! Quantity {dimensionless}
  619.19,                                 ! Material Cost {$}
  CostPerArea;                            ! Material Cost Units

OS:ComponentData,
  {ef7e6fa2-9734-4656-87c9-ab212f55ae93}, ! Handle
  Component Data 1,                       ! Name
  {3dfcfb29-ae31-4bf3-b7cb-769d696da6ea}, ! UUID
  {8ab8a62b-cc4e-45d6-86eb-732f3622323b}, ! Version UUID
  1363981151,                             ! Creation Timestamp
  1363981151,                             ! Version Timestamp
  {fc86e778-8f4d-4b82-b392-d7e16d4506f8}, ! Name of Object 1
  {ad6eace4-e51c-4760-bcc3-999c80f8e07e}, ! Name of Object 2
  {0a0bdc0f-beee-45e0-b8ef-177cc5f6fa34}; ! Name of Object 3

