
OS:Version,
  {67b97710-028b-4505-bb1d-73b3001468fa}, ! Handle
  0.9.3;                                  ! Version Identifier

OS:Construction,
  {89a65289-e108-4c42-84ac-acc415975ac3}, ! Handle
  90.1-1999 Nonres B24 Window Fixed,      ! Name
  ,                                       ! Surface Rendering Name
  {f1e5b9e8-5910-47dc-a06f-c270cac84d31}; ! Layer 1

OS:WindowMaterial:Glazing,
  {f1e5b9e8-5910-47dc-a06f-c270cac84d31}, ! Handle
  Theoretical Glass [44],                 ! Name
  SpectralAverage,                        ! Optical Data Type
  ,                                       ! Window Glass Spectral Data Set Name
  0.003,                                  ! Thickness {m}
  0.455617,                               ! Solar Transmittance at Normal Incidence
  0.494383,                               ! Front Side Solar Reflectance at Normal Incidence
  0.494383,                               ! Back Side Solar Reflectance at Normal Incidence
  0.493419,                               ! Visible Transmittance at Normal Incidence
  0.456581,                               ! Front Side Visible Reflectance at Normal Incidence
  0.456581,                               ! Back Side Visible Reflectance at Normal Incidence
  0,                                      ! Infrared Transmittance at Normal Incidence
  0.9,                                    ! Front Side Infrared Hemispherical Emissivity
  0.9,                                    ! Back Side Infrared Hemispherical Emissivity
  0.00882224;                             ! Conductivity {W/m-K}

OS:ComponentCost:LineItem,
  {49c21af5-e0f8-4885-b507-0da0ffa4ae19}, ! Handle
  90.1-1999 Nonres B24 Window Fixed,      ! Name
  ,                                       ! Type
  Construction,                           ! Line Item Type
  90.1-1999 Nonres B24 Window Fixed,      ! Item Name
  ,                                       ! Object End Use Key
  ,                                       ! Quantity {dimensionless}
  619.19,                                 ! Material Cost {$}
  CostPerArea;                            ! Material Cost Units

