
OS:Version,
  {29472332-4b36-4f8f-a6ad-66d72c1b4359}, ! Handle
  0.9.3;                                  ! Version Identifier

OS:Material,
  {07b6e737-2dd6-4340-9317-e9501b8ea9e0}, ! Handle
  Roof Insulation [12],                   ! Name
  MediumRough,                            ! Roughness
  0.167635,                               ! Thickness {m}
  0.049,                                  ! Conductivity {W/m-K}
  265,                                    ! Density {kg/m3}
  836.8,                                  ! Specific Heat {J/kg-K}
  0.9,                                    ! Thermal Absorptance
  0.7,                                    ! Solar Absorptance
  0.7;                                    ! Visible Absorptance

OS:Construction,
  {d578fa86-9b7b-4656-af18-7a3779fc6c73}, ! Handle
  90.1-2001 Res B23 Roof IEAD,            ! Name
  ,                                       ! Surface Rendering Name
  {bc3d7651-1ce5-4cdb-aeba-d554a9905509}, ! Layer 1
  {07b6e737-2dd6-4340-9317-e9501b8ea9e0}, ! Layer 2
  {fbc2105a-2aa0-4ef3-a5f2-3dde57dc1381}; ! Layer 3

OS:Material,
  {bc3d7651-1ce5-4cdb-aeba-d554a9905509}, ! Handle
  Roof Membrane,                          ! Name
  VeryRough,                              ! Roughness
  0.0095,                                 ! Thickness {m}
  0.16,                                   ! Conductivity {W/m-K}
  1121.29,                                ! Density {kg/m3}
  1460,                                   ! Specific Heat {J/kg-K}
  0.9,                                    ! Thermal Absorptance
  0.7,                                    ! Solar Absorptance
  0.7;                                    ! Visible Absorptance

OS:Material,
  {fbc2105a-2aa0-4ef3-a5f2-3dde57dc1381}, ! Handle
  Metal Decking,                          ! Name
  MediumSmooth,                           ! Roughness
  0.001524,                               ! Thickness {m}
  45.006,                                 ! Conductivity {W/m-K}
  7680,                                   ! Density {kg/m3}
  418.4,                                  ! Specific Heat {J/kg-K}
  0.9,                                    ! Thermal Absorptance
  0.7,                                    ! Solar Absorptance
  0.3;                                    ! Visible Absorptance

OS:ComponentCost:LineItem,
  {3c48bc08-2bcd-42cf-81ff-cb739170056e}, ! Handle
  90.1-2001 Res B23 Roof IEAD,            ! Name
  ,                                       ! Type
  Construction,                           ! Line Item Type
  90.1-2001 Res B23 Roof IEAD,            ! Item Name
  ,                                       ! Object End Use Key
  ,                                       ! Quantity {dimensionless}
  52.902,                                 ! Material Cost {$}
  CostPerArea;                            ! Material Cost Units

