
OS:Version,
  {8bb99c27-60f5-4fe2-abe0-06cc147b8614}, ! Handle
  0.9.3;                                  ! Version Identifier

OS:Construction,
  {6500f419-74ba-46b0-9dfa-105463df5d79}, ! Handle
  90.1-1999 Res B15 Roof Metal Building,  ! Name
  ,                                       ! Surface Rendering Name
  {d2dbd021-c3aa-463f-a68f-cbe4cb56fe8f}, ! Layer 1
  {a70fb49a-cf1a-45ff-94d1-1021b1a41add}; ! Layer 2

OS:Material,
  {d2dbd021-c3aa-463f-a68f-cbe4cb56fe8f}, ! Handle
  Metal Roofing,                          ! Name
  MediumSmooth,                           ! Roughness
  0.001524,                               ! Thickness {m}
  45.006,                                 ! Conductivity {W/m-K}
  7680,                                   ! Density {kg/m3}
  418.4,                                  ! Specific Heat {J/kg-K}
  0.9,                                    ! Thermal Absorptance
  0.7,                                    ! Solar Absorptance
  0.3;                                    ! Visible Absorptance

OS:Material,
  {a70fb49a-cf1a-45ff-94d1-1021b1a41add}, ! Handle
  Roof Insulation [1],                    ! Name
  MediumRough,                            ! Roughness
  0.123533,                               ! Thickness {m}
  0.049,                                  ! Conductivity {W/m-K}
  265,                                    ! Density {kg/m3}
  836.8,                                  ! Specific Heat {J/kg-K}
  0.9,                                    ! Thermal Absorptance
  0.7,                                    ! Solar Absorptance
  0.7;                                    ! Visible Absorptance

OS:ComponentCost:LineItem,
  {1c66b069-b3d1-42f7-8eb8-0b31a57c9ff5}, ! Handle
  90.1-1999 Res B15 Roof Metal Building,  ! Name
  ,                                       ! Type
  Construction,                           ! Line Item Type
  90.1-1999 Res B15 Roof Metal Building,  ! Item Name
  ,                                       ! Object End Use Key
  ,                                       ! Quantity {dimensionless}
  38.206,                                 ! Material Cost {$}
  CostPerArea;                            ! Material Cost Units

OS:ComponentData,
  {e52818bf-5cc6-4e1d-b10f-6bbbcb2c2d01}, ! Handle
  Component Data 1,                       ! Name
  {e592358c-a35e-464c-a668-f66985e2aa62}, ! UUID
  {8c8ddd46-4463-469c-8067-c3f52198c91b}, ! Version UUID
  1363981228,                             ! Creation Timestamp
  1363981228,                             ! Version Timestamp
  {6500f419-74ba-46b0-9dfa-105463df5d79}, ! Name of Object 1
  {d2dbd021-c3aa-463f-a68f-cbe4cb56fe8f}, ! Name of Object 2
  {a70fb49a-cf1a-45ff-94d1-1021b1a41add}, ! Name of Object 3
  {1c66b069-b3d1-42f7-8eb8-0b31a57c9ff5}; ! Name of Object 4

