
OS:Version,
  {0bcd8db6-9fae-43a2-9111-eb9cf7d2794c}, ! Handle
  0.9.3;                                  ! Version Identifier

OS:ComponentCost:LineItem,
  {d83e842b-cbe4-4c74-8d72-dcaf7a2d0608}, ! Handle
  90.1-1999 Res B15 Roof Metal Building,  ! Name
  ,                                       ! Type
  Construction,                           ! Line Item Type
  90.1-1999 Res B15 Roof Metal Building,  ! Item Name
  ,                                       ! Object End Use Key
  ,                                       ! Quantity {dimensionless}
  38.206,                                 ! Material Cost {$}
  CostPerArea;                            ! Material Cost Units

OS:Material,
  {f27c818a-6a06-4985-a52c-58338e91129f}, ! Handle
  Metal Roofing,                          ! Name
  MediumSmooth,                           ! Roughness
  0.001524,                               ! Thickness {m}
  45.006,                                 ! Conductivity {W/m-K}
  7680,                                   ! Density {kg/m3}
  418.4,                                  ! Specific Heat {J/kg-K}
  0.9,                                    ! Thermal Absorptance
  0.7,                                    ! Solar Absorptance
  0.3;                                    ! Visible Absorptance

OS:Material,
  {665444e4-c544-40ac-aab4-21a45154360d}, ! Handle
  Roof Insulation [1],                    ! Name
  MediumRough,                            ! Roughness
  0.123533,                               ! Thickness {m}
  0.049,                                  ! Conductivity {W/m-K}
  265,                                    ! Density {kg/m3}
  836.8,                                  ! Specific Heat {J/kg-K}
  0.9,                                    ! Thermal Absorptance
  0.7,                                    ! Solar Absorptance
  0.7;                                    ! Visible Absorptance

OS:Construction,
  {11c2ab18-cd59-4bcb-aad5-899fab9fd882}, ! Handle
  90.1-1999 Res B15 Roof Metal Building,  ! Name
  ,                                       ! Surface Rendering Name
  {f27c818a-6a06-4985-a52c-58338e91129f}, ! Layer 1
  {665444e4-c544-40ac-aab4-21a45154360d}; ! Layer 2

