
OS:Version,
  {5ad197cb-b16e-4173-a29d-2b1db1d20fd0}, ! Handle
  0.9.3;                                  ! Version Identifier

OS:Material,
  {8c5ed192-86ee-4e77-954f-adfc22fb3663}, ! Handle
  Metal Decking,                          ! Name
  MediumSmooth,                           ! Roughness
  0.001524,                               ! Thickness {m}
  45.006,                                 ! Conductivity {W/m-K}
  7680,                                   ! Density {kg/m3}
  418.4,                                  ! Specific Heat {J/kg-K}
  0.9,                                    ! Thermal Absorptance
  0.7,                                    ! Solar Absorptance
  0.3;                                    ! Visible Absorptance

OS:Construction,
  {05747286-441d-4de6-9a7a-c914d1c7cf18}, ! Handle
  189.1-2009 Res 6B Roof IEAD,            ! Name
  ,                                       ! Surface Rendering Name
  {27212fcf-2c8d-4ff1-9b3d-eca5125bdddf}, ! Layer 1
  {5baa31e2-d331-44e5-919b-276323ac9088}, ! Layer 2
  {8c5ed192-86ee-4e77-954f-adfc22fb3663}; ! Layer 3

OS:Material,
  {27212fcf-2c8d-4ff1-9b3d-eca5125bdddf}, ! Handle
  Roof Membrane,                          ! Name
  VeryRough,                              ! Roughness
  0.0095,                                 ! Thickness {m}
  0.16,                                   ! Conductivity {W/m-K}
  1121.29,                                ! Density {kg/m3}
  1460,                                   ! Specific Heat {J/kg-K}
  0.9,                                    ! Thermal Absorptance
  0.7,                                    ! Solar Absorptance
  0.7;                                    ! Visible Absorptance

OS:Material,
  {5baa31e2-d331-44e5-919b-276323ac9088}, ! Handle
  Roof Insulation [24],                   ! Name
  MediumRough,                            ! Roughness
  0.260107,                               ! Thickness {m}
  0.049,                                  ! Conductivity {W/m-K}
  265,                                    ! Density {kg/m3}
  836.8,                                  ! Specific Heat {J/kg-K}
  0.9,                                    ! Thermal Absorptance
  0.7,                                    ! Solar Absorptance
  0.7;                                    ! Visible Absorptance

OS:ComponentCost:LineItem,
  {782f3809-c5d0-4b4a-971b-77a3e07e2a05}, ! Handle
  189.1-2009 Res 6B Roof IEAD,            ! Name
  ,                                       ! Type
  Construction,                           ! Line Item Type
  189.1-2009 Res 6B Roof IEAD,            ! Item Name
  ,                                       ! Object End Use Key
  ,                                       ! Quantity {dimensionless}
  61.146,                                 ! Material Cost {$}
  CostPerArea;                            ! Material Cost Units

