
OS:Version,
  {98e0f83f-ea99-46c3-90bf-6ce78bb45d07}, ! Handle
  0.9.3;                                  ! Version Identifier

OS:Construction,
  {ba18308c-4c0e-4552-91e3-f58d92faad72}, ! Handle
  90.1-1999 Res B21 Int Wall,             ! Name
  ,                                       ! Surface Rendering Name
  {65b4a961-361a-4142-aee3-4787e07ac858}, ! Layer 1
  {65b4a961-361a-4142-aee3-4787e07ac858}; ! Layer 2

OS:Material,
  {65b4a961-361a-4142-aee3-4787e07ac858}, ! Handle
  GP01 1/2 GYPSUM,                        ! Name
  Smooth,                                 ! Roughness
  0.01271,                                ! Thickness {m}
  0.16,                                   ! Conductivity {W/m-K}
  800,                                    ! Density {kg/m3}
  1090,                                   ! Specific Heat {J/kg-K}
  0.9,                                    ! Thermal Absorptance
  0.7,                                    ! Solar Absorptance
  0.5;                                    ! Visible Absorptance

OS:ComponentCost:LineItem,
  {a58dd957-5afb-4ed0-a36d-99094405b23f}, ! Handle
  90.1-1999 Res B21 Int Wall,             ! Name
  ,                                       ! Type
  Construction,                           ! Line Item Type
  90.1-1999 Res B21 Int Wall,             ! Item Name
  ,                                       ! Object End Use Key
  ,                                       ! Quantity {dimensionless}
  0,                                      ! Material Cost {$}
  CostPerArea;                            ! Material Cost Units

OS:Material,
  {af49aa71-638b-49e1-aab0-e21ab82f8caf}, ! Handle
  GP01 1/2 GYPSUM 1,                      ! Name
  Smooth,                                 ! Roughness
  0.01271,                                ! Thickness {m}
  0.16,                                   ! Conductivity {W/m-K}
  800,                                    ! Density {kg/m3}
  1090,                                   ! Specific Heat {J/kg-K}
  0.9,                                    ! Thermal Absorptance
  0.7,                                    ! Solar Absorptance
  0.5;                                    ! Visible Absorptance

