
OS:Version,
  {ce0c440e-6cda-4dd1-925b-234da3fcbf30}, ! Handle
  0.9.3;                                  ! Version Identifier

OS:Construction,
  {a44d89b1-9efd-4a02-af92-af7076362d87}, ! Handle
  90.1-2007 Nonres 1A Window Metal framing curtainwall-storefront, ! Name
  ,                                       ! Surface Rendering Name
  {95641f31-8e0c-43a4-b2c5-f23f98249f05}; ! Layer 1

OS:WindowMaterial:Glazing,
  {95641f31-8e0c-43a4-b2c5-f23f98249f05}, ! Handle
  Theoretical Glass [167],                ! Name
  SpectralAverage,                        ! Optical Data Type
  ,                                       ! Window Glass Spectral Data Set Name
  0.003,                                  ! Thickness {m}
  0.237362,                               ! Solar Transmittance at Normal Incidence
  0.712638,                               ! Front Side Solar Reflectance at Normal Incidence
  0.712638,                               ! Back Side Solar Reflectance at Normal Incidence
  0.251212,                               ! Visible Transmittance at Normal Incidence
  0.698788,                               ! Front Side Visible Reflectance at Normal Incidence
  0.698788,                               ! Back Side Visible Reflectance at Normal Incidence
  0,                                      ! Infrared Transmittance at Normal Incidence
  0.985,                                  ! Front Side Infrared Hemispherical Emissivity
  0.985,                                  ! Back Side Infrared Hemispherical Emissivity
  2.10728;                                ! Conductivity {W/m-K}

OS:ComponentCost:LineItem,
  {fc7b0253-5ca0-415b-97ac-795343996fcc}, ! Handle
  90.1-2007 Nonres 1A Window Metal framing curtainwall-storefront, ! Name
  ,                                       ! Type
  Construction,                           ! Line Item Type
  90.1-2007 Nonres 1A Window Metal framing curtainwall-storefront, ! Item Name
  ,                                       ! Object End Use Key
  ,                                       ! Quantity {dimensionless}
  534.616,                                ! Material Cost {$}
  CostPerArea;                            ! Material Cost Units

OS:ComponentData,
  {bce898fc-449a-4ece-8f00-9530fef9cb02}, ! Handle
  Component Data 1,                       ! Name
  {a067e5b7-25a1-4499-ab90-5058603055ef}, ! UUID
  {0e286f87-7245-4565-869f-9301459e771b}, ! Version UUID
  1363981779,                             ! Creation Timestamp
  1363981779,                             ! Version Timestamp
  {a44d89b1-9efd-4a02-af92-af7076362d87}, ! Name of Object 1
  {95641f31-8e0c-43a4-b2c5-f23f98249f05}, ! Name of Object 2
  {fc7b0253-5ca0-415b-97ac-795343996fcc}; ! Name of Object 3

