
OS:Version,
  {37783c1f-3f09-4e57-ba09-1b9fe42f8566}, ! Handle
  0.9.3;                                  ! Version Identifier

OS:Material:NoMass,
  {adb85e2b-8aa3-4787-b96a-2a5c922db684}, ! Handle
  CP02 CARPET PAD,                        ! Name
  VeryRough,                              ! Roughness
  0.21648,                                ! Thermal Resistance {m2-K/W}
  0.9,                                    ! Thermal Absorptance
  0.7,                                    ! Solar Absorptance
  0.8;                                    ! Visible Absorptance

OS:Material,
  {f36077a4-e999-4a10-bb95-ecdb6a6a9b1d}, ! Handle
  MAT-CC05 8 HW CONCRETE,                 ! Name
  Rough,                                  ! Roughness
  0.20321,                                ! Thickness {m}
  1.311,                                  ! Conductivity {W/m-K}
  2240,                                   ! Density {kg/m3}
  836.8,                                  ! Specific Heat {J/kg-K}
  0.9,                                    ! Thermal Absorptance
  0.7,                                    ! Solar Absorptance
  0.7;                                    ! Visible Absorptance

OS:ComponentCost:LineItem,
  {39a8dfe6-29eb-411f-836c-483f02c48467}, ! Handle
  90.1-2007 Res 5B Exposed Floor Mass,    ! Name
  ,                                       ! Type
  Construction,                           ! Line Item Type
  90.1-2007 Res 5B Exposed Floor Mass,    ! Item Name
  ,                                       ! Object End Use Key
  ,                                       ! Quantity {dimensionless}
  54.164,                                 ! Material Cost {$}
  CostPerArea;                            ! Material Cost Units

OS:Material,
  {0b156f9b-793d-4692-8aae-28fb12284899}, ! Handle
  Floor Insulation [3],                   ! Name
  MediumRough,                            ! Roughness
  0.0962549,                              ! Thickness {m}
  0.045,                                  ! Conductivity {W/m-K}
  265,                                    ! Density {kg/m3}
  836.8,                                  ! Specific Heat {J/kg-K}
  0.9,                                    ! Thermal Absorptance
  0.7,                                    ! Solar Absorptance
  0.7;                                    ! Visible Absorptance

OS:Construction,
  {a23ca533-c0a3-4aeb-9565-587701e0a997}, ! Handle
  90.1-2007 Res 5B Exposed Floor Mass,    ! Name
  ,                                       ! Surface Rendering Name
  {0b156f9b-793d-4692-8aae-28fb12284899}, ! Layer 1
  {f36077a4-e999-4a10-bb95-ecdb6a6a9b1d}, ! Layer 2
  {adb85e2b-8aa3-4787-b96a-2a5c922db684}; ! Layer 3

