
OS:Version,
  {cb10572a-fcd2-46e5-ac15-a0898c54e2ae}, ! Handle
  0.9.3;                                  ! Version Identifier

OS:Material,
  {9959e3f5-b5c5-4638-b082-e0995dc82e66}, ! Handle
  1/2IN Gypsum,                           ! Name
  Smooth,                                 ! Roughness
  0.01271,                                ! Thickness {m}
  0.16,                                   ! Conductivity {W/m-K}
  784.9,                                  ! Density {kg/m3}
  830,                                    ! Specific Heat {J/kg-K}
  0.9,                                    ! Thermal Absorptance
  0.92,                                   ! Solar Absorptance
  0.92;                                   ! Visible Absorptance

OS:Material,
  {e24010a9-1a48-4ff4-8781-f786649c9357}, ! Handle
  Wall Insulation [159],                  ! Name
  MediumRough,                            ! Roughness
  0.0812,                                 ! Thickness {m}
  0.045,                                  ! Conductivity {W/m-K}
  265,                                    ! Density {kg/m3}
  836.8,                                  ! Specific Heat {J/kg-K}
  0.9,                                    ! Thermal Absorptance
  0.7,                                    ! Solar Absorptance
  0.7;                                    ! Visible Absorptance

OS:Construction,
  {ac7a0c09-bde6-43e2-8a21-e55c444d9c86}, ! Handle
  Title 24-2008 Nonres 13 Ext Wall Metal Building, ! Name
  ,                                       ! Surface Rendering Name
  {be9f7fc8-aa15-4cce-a575-3fda17e1b6ca}, ! Layer 1
  {e24010a9-1a48-4ff4-8781-f786649c9357}, ! Layer 2
  {9959e3f5-b5c5-4638-b082-e0995dc82e66}; ! Layer 3

OS:Material,
  {be9f7fc8-aa15-4cce-a575-3fda17e1b6ca}, ! Handle
  Metal Siding,                           ! Name
  Smooth,                                 ! Roughness
  0.0015,                                 ! Thickness {m}
  44.96,                                  ! Conductivity {W/m-K}
  7688.86,                                ! Density {kg/m3}
  410,                                    ! Specific Heat {J/kg-K}
  0.9,                                    ! Thermal Absorptance
  0.2,                                    ! Solar Absorptance
  0.2;                                    ! Visible Absorptance

OS:ComponentCost:LineItem,
  {349a94b0-7ec4-4ac8-aa64-f75d782f987d}, ! Handle
  Title 24-2008 Nonres 13 Ext Wall Metal Building, ! Name
  ,                                       ! Type
  Construction,                           ! Line Item Type
  Title 24-2008 Nonres 13 Ext Wall Metal Building, ! Item Name
  ,                                       ! Object End Use Key
  ,                                       ! Quantity {dimensionless}
  184.211,                                ! Material Cost {$}
  CostPerArea;                            ! Material Cost Units

