
OS:Version,
  {248b6ee5-ba30-4e84-ad9d-a48a08258c5f}, ! Handle
  0.9.3;                                  ! Version Identifier

OS:ComponentCost:LineItem,
  {c2e0a8f3-aa3d-4ad0-a690-3371ab36026b}, ! Handle
  Title 24-2008 Nonres 6 Door Non-Swinging, ! Name
  ,                                       ! Type
  Construction,                           ! Line Item Type
  Title 24-2008 Nonres 6 Door Non-Swinging, ! Item Name
  ,                                       ! Object End Use Key
  ,                                       ! Quantity {dimensionless}
  0,                                      ! Material Cost {$}
  CostPerArea;                            ! Material Cost Units

OS:Material,
  {e0e4d9cc-7e74-47e8-baaa-d20175c39d02}, ! Handle
  METAL Door Medium 18Ga,                 ! Name
  Smooth,                                 ! Roughness
  0.0013106,                              ! Thickness {m}
  45.3149,                                ! Conductivity {W/m-K}
  7833.03,                                ! Density {kg/m3}
  502.08,                                 ! Specific Heat {J/kg-K}
  0.8,                                    ! Thermal Absorptance
  0.5,                                    ! Solar Absorptance
  0.5;                                    ! Visible Absorptance

OS:Construction,
  {cfcce4df-a212-426b-9c65-7db91763a21b}, ! Handle
  Title 24-2008 Nonres 6 Door Non-Swinging, ! Name
  ,                                       ! Surface Rendering Name
  {e0e4d9cc-7e74-47e8-baaa-d20175c39d02}, ! Layer 1
  {996a5a69-2672-4938-8aa2-876c14beaf6a}, ! Layer 2
  {a3d2e46d-870d-4a8c-bce0-35220a5d2aeb}; ! Layer 3

OS:Material:NoMass,
  {996a5a69-2672-4938-8aa2-876c14beaf6a}, ! Handle
  AIR [16],                               ! Name
  Smooth,                                 ! Roughness
  0.121454,                               ! Thermal Resistance {m2-K/W}
  0.8,                                    ! Thermal Absorptance
  0.5,                                    ! Solar Absorptance
  0.5;                                    ! Visible Absorptance

OS:Material,
  {a3d2e46d-870d-4a8c-bce0-35220a5d2aeb}, ! Handle
  METAL Door Medium 18Ga_2,               ! Name
  Smooth,                                 ! Roughness
  0.0013106,                              ! Thickness {m}
  45.3149,                                ! Conductivity {W/m-K}
  7833.03,                                ! Density {kg/m3}
  502.08,                                 ! Specific Heat {J/kg-K}
  0.8,                                    ! Thermal Absorptance
  0.5,                                    ! Solar Absorptance
  0.5;                                    ! Visible Absorptance

