
OS:Version,
  {8a1d1d32-3735-4274-801e-b9768ee7a2df}, ! Handle
  0.9.3;                                  ! Version Identifier

OS:Material,
  {4ce59724-06d0-4f2f-a242-359d4134ad4b}, ! Handle
  1IN Stucco,                             ! Name
  Smooth,                                 ! Roughness
  0.0253,                                 ! Thickness {m}
  0.6918,                                 ! Conductivity {W/m-K}
  1858,                                   ! Density {kg/m3}
  837,                                    ! Specific Heat {J/kg-K}
  0.9,                                    ! Thermal Absorptance
  0.92,                                   ! Solar Absorptance
  0.92;                                   ! Visible Absorptance

OS:Construction,
  {a8c35e67-5fe4-43f6-8d64-98e9e527c8f6}, ! Handle
  90.1-1999 Nonres B22 Ext Wall Mass,     ! Name
  ,                                       ! Surface Rendering Name
  {4ce59724-06d0-4f2f-a242-359d4134ad4b}, ! Layer 1
  {25a38f0c-4128-404b-9b13-7012e2c81ecc}, ! Layer 2
  {dcecfb01-7f01-4c8c-b319-ac3f9af45e54}, ! Layer 3
  {0aaef8ed-bafd-4995-a184-9c7cffedca88}; ! Layer 4

OS:Material,
  {25a38f0c-4128-404b-9b13-7012e2c81ecc}, ! Handle
  8IN Concrete HW,                        ! Name
  MediumRough,                            ! Roughness
  0.2033,                                 ! Thickness {m}
  1.7296,                                 ! Conductivity {W/m-K}
  2243,                                   ! Density {kg/m3}
  837,                                    ! Specific Heat {J/kg-K}
  0.9,                                    ! Thermal Absorptance
  0.65,                                   ! Solar Absorptance
  0.65;                                   ! Visible Absorptance

OS:Material,
  {dcecfb01-7f01-4c8c-b319-ac3f9af45e54}, ! Handle
  Wall Insulation [8],                    ! Name
  MediumRough,                            ! Roughness
  0.067929,                               ! Thickness {m}
  0.0432,                                 ! Conductivity {W/m-K}
  91,                                     ! Density {kg/m3}
  837,                                    ! Specific Heat {J/kg-K}
  0.9,                                    ! Thermal Absorptance
  0.5,                                    ! Solar Absorptance
  0.5;                                    ! Visible Absorptance

OS:Material,
  {0aaef8ed-bafd-4995-a184-9c7cffedca88}, ! Handle
  1/2IN Gypsum,                           ! Name
  Smooth,                                 ! Roughness
  0.01271,                                ! Thickness {m}
  0.16,                                   ! Conductivity {W/m-K}
  784.9,                                  ! Density {kg/m3}
  830,                                    ! Specific Heat {J/kg-K}
  0.9,                                    ! Thermal Absorptance
  0.92,                                   ! Solar Absorptance
  0.92;                                   ! Visible Absorptance

OS:ComponentCost:LineItem,
  {332c8e8a-52b0-47b7-b935-081708563225}, ! Handle
  90.1-1999 Nonres B22 Ext Wall Mass,     ! Name
  ,                                       ! Type
  Construction,                           ! Line Item Type
  90.1-1999 Nonres B22 Ext Wall Mass,     ! Item Name
  ,                                       ! Object End Use Key
  ,                                       ! Quantity {dimensionless}
  65.826,                                 ! Material Cost {$}
  CostPerArea;                            ! Material Cost Units

