
OS:Version,
  {4030ff41-678d-4580-ac5a-f5d90a10d400}, !- Handle
  1.1.0;                                  !- Version Identifier

OS:Construction,
  {9a3c1611-9825-4304-b25a-ae30a7b23320}, !- Handle
  Sgl LoE (e2=.4) Clr 3mm,                !- Name
  ,                                       !- Surface Rendering Name
  {fc3f39b4-9d2f-4250-8039-2ea5f2b63835}; !- Layer 1

OS:WindowMaterial:Glazing,
  {fc3f39b4-9d2f-4250-8039-2ea5f2b63835}, !- Handle
  PYR A CLEAR 3MM,                        !- Name
  SpectralAverage,                        !- Optical Data Type
  ,                                       !- Window Glass Spectral Data Set Name
  0.003,                                  !- Thickness {m}
  0.75,                                   !- Solar Transmittance at Normal Incidence
  0.1,                                    !- Front Side Solar Reflectance at Normal Incidence
  0.1,                                    !- Back Side Solar Reflectance at Normal Incidence
  0.85,                                   !- Visible Transmittance at Normal Incidence
  0.12,                                   !- Front Side Visible Reflectance at Normal Incidence
  0.12,                                   !- Back Side Visible Reflectance at Normal Incidence
  0,                                      !- Infrared Transmittance at Normal Incidence
  0.84,                                   !- Front Side Infrared Hemispherical Emissivity
  0.4,                                    !- Back Side Infrared Hemispherical Emissivity
  0.9;                                    !- Conductivity {W/m-K}

