
OS:Version,
  {0b350fc9-e3b6-4354-8ff5-70bb4c6ba34c}, ! Handle
  0.9.3;                                  ! Version Identifier

OS:Material,
  {12e3f919-50fc-4332-9b6d-8742a8c36cdd}, ! Handle
  Wall Insulation [159],                  ! Name
  MediumRough,                            ! Roughness
  0.0812,                                 ! Thickness {m}
  0.045,                                  ! Conductivity {W/m-K}
  265,                                    ! Density {kg/m3}
  836.8,                                  ! Specific Heat {J/kg-K}
  0.9,                                    ! Thermal Absorptance
  0.7,                                    ! Solar Absorptance
  0.7;                                    ! Visible Absorptance

OS:ComponentCost:LineItem,
  {fdd6205e-8c58-4f5e-aa70-58e637496a75}, ! Handle
  Title 24-2008 Nonres 3 Ext Wall Metal Building, ! Name
  ,                                       ! Type
  Construction,                           ! Line Item Type
  Title 24-2008 Nonres 3 Ext Wall Metal Building, ! Item Name
  ,                                       ! Object End Use Key
  ,                                       ! Quantity {dimensionless}
  184.211,                                ! Material Cost {$}
  CostPerArea;                            ! Material Cost Units

OS:Construction,
  {336d8d76-9ee4-42c7-8c39-83fb3e2be14e}, ! Handle
  Title 24-2008 Nonres 3 Ext Wall Metal Building, ! Name
  ,                                       ! Surface Rendering Name
  {5e66bd1c-d363-49eb-94e1-0c6895be163b}, ! Layer 1
  {12e3f919-50fc-4332-9b6d-8742a8c36cdd}, ! Layer 2
  {39216005-acef-42a0-bb62-03df37df0446}; ! Layer 3

OS:Material,
  {5e66bd1c-d363-49eb-94e1-0c6895be163b}, ! Handle
  Metal Siding,                           ! Name
  Smooth,                                 ! Roughness
  0.0015,                                 ! Thickness {m}
  44.96,                                  ! Conductivity {W/m-K}
  7688.86,                                ! Density {kg/m3}
  410,                                    ! Specific Heat {J/kg-K}
  0.9,                                    ! Thermal Absorptance
  0.2,                                    ! Solar Absorptance
  0.2;                                    ! Visible Absorptance

OS:Material,
  {39216005-acef-42a0-bb62-03df37df0446}, ! Handle
  1/2IN Gypsum,                           ! Name
  Smooth,                                 ! Roughness
  0.01271,                                ! Thickness {m}
  0.16,                                   ! Conductivity {W/m-K}
  784.9,                                  ! Density {kg/m3}
  830,                                    ! Specific Heat {J/kg-K}
  0.9,                                    ! Thermal Absorptance
  0.92,                                   ! Solar Absorptance
  0.92;                                   ! Visible Absorptance

