
OS:Version,
  {86846bc6-441c-4f58-97f8-fb8ec8514604}, ! Handle
  0.9.3;                                  ! Version Identifier

OS:Construction,
  {5334ccbe-74b6-46f2-9fd8-c070795733d3}, ! Handle
  90.1-1999 Nonres B24 Roof Attic and Other, ! Name
  ,                                       ! Surface Rendering Name
  {47071ea5-d1cf-4c9c-b0aa-eb5de1cc01a1}, ! Layer 1
  {7e5b741a-5783-4bac-8f67-a27f8b78eb65}, ! Layer 2
  {84558edc-52c2-4934-a709-8f21665f5f4d}, ! Layer 3
  {f62ceb2b-ce49-490a-90c5-2236f7acb321}; ! Layer 4

OS:Material,
  {47071ea5-d1cf-4c9c-b0aa-eb5de1cc01a1}, ! Handle
  Wood Shingles,                          ! Name
  VeryRough,                              ! Roughness
  0.0178,                                 ! Thickness {m}
  0.115,                                  ! Conductivity {W/m-K}
  513,                                    ! Density {kg/m3}
  1255,                                   ! Specific Heat {J/kg-K}
  0.9,                                    ! Thermal Absorptance
  0.78,                                   ! Solar Absorptance
  0.78;                                   ! Visible Absorptance

OS:Material,
  {7e5b741a-5783-4bac-8f67-a27f8b78eb65}, ! Handle
  1IN Wood Decking,                       ! Name
  MediumSmooth,                           ! Roughness
  0.0254,                                 ! Thickness {m}
  0.1211,                                 ! Conductivity {W/m-K}
  593,                                    ! Density {kg/m3}
  2510,                                   ! Specific Heat {J/kg-K}
  0.9,                                    ! Thermal Absorptance
  0.78,                                   ! Solar Absorptance
  0.78;                                   ! Visible Absorptance

OS:Material,
  {84558edc-52c2-4934-a709-8f21665f5f4d}, ! Handle
  Roof Insulation [5],                    ! Name
  MediumRough,                            ! Roughness
  0.286906,                               ! Thickness {m}
  0.049,                                  ! Conductivity {W/m-K}
  265,                                    ! Density {kg/m3}
  836.8,                                  ! Specific Heat {J/kg-K}
  0.9,                                    ! Thermal Absorptance
  0.7,                                    ! Solar Absorptance
  0.7;                                    ! Visible Absorptance

OS:Material,
  {f62ceb2b-ce49-490a-90c5-2236f7acb321}, ! Handle
  1/2IN Gypsum,                           ! Name
  Smooth,                                 ! Roughness
  0.01271,                                ! Thickness {m}
  0.16,                                   ! Conductivity {W/m-K}
  784.9,                                  ! Density {kg/m3}
  830,                                    ! Specific Heat {J/kg-K}
  0.9,                                    ! Thermal Absorptance
  0.92,                                   ! Solar Absorptance
  0.92;                                   ! Visible Absorptance

OS:ComponentCost:LineItem,
  {fb1bfa58-8b3c-453f-bd1e-8276e6c7af7f}, ! Handle
  90.1-1999 Nonres B24 Roof Attic and Other, ! Name
  ,                                       ! Type
  Construction,                           ! Line Item Type
  90.1-1999 Nonres B24 Roof Attic and Other, ! Item Name
  ,                                       ! Object End Use Key
  ,                                       ! Quantity {dimensionless}
  34.757,                                 ! Material Cost {$}
  CostPerArea;                            ! Material Cost Units

OS:ComponentData,
  {ec7decae-9ee6-410f-82f1-1729f7ddf3ad}, ! Handle
  Component Data 1,                       ! Name
  {cedd7923-9a71-4d0d-bdf8-adb374d027ff}, ! UUID
  {db006d0f-9e2f-4b25-866b-af86226d0dfa}, ! Version UUID
  1363981147,                             ! Creation Timestamp
  1363981147,                             ! Version Timestamp
  {5334ccbe-74b6-46f2-9fd8-c070795733d3}, ! Name of Object 1
  {47071ea5-d1cf-4c9c-b0aa-eb5de1cc01a1}, ! Name of Object 2
  {7e5b741a-5783-4bac-8f67-a27f8b78eb65}, ! Name of Object 3
  {84558edc-52c2-4934-a709-8f21665f5f4d}, ! Name of Object 4
  {f62ceb2b-ce49-490a-90c5-2236f7acb321}, ! Name of Object 5
  {fb1bfa58-8b3c-453f-bd1e-8276e6c7af7f}; ! Name of Object 6

