
OS:Version,
  {23b43633-4771-4f58-ada6-1489ae7c9e08}, ! Handle
  0.9.3;                                  ! Version Identifier

OS:Material:NoMass,
  {02a3c809-e025-400b-afaf-bbc72783822b}, ! Handle
  CP02 CARPET PAD,                        ! Name
  VeryRough,                              ! Roughness
  0.21648,                                ! Thermal Resistance {m2-K/W}
  0.9,                                    ! Thermal Absorptance
  0.7,                                    ! Solar Absorptance
  0.8;                                    ! Visible Absorptance

OS:Material,
  {0ab69181-5187-40de-a777-51f643cdb01e}, ! Handle
  MAT-CC05 4 HW CONCRETE,                 ! Name
  Rough,                                  ! Roughness
  0.1016,                                 ! Thickness {m}
  1.311,                                  ! Conductivity {W/m-K}
  2240,                                   ! Density {kg/m3}
  836.8,                                  ! Specific Heat {J/kg-K}
  0.9,                                    ! Thermal Absorptance
  0.7,                                    ! Solar Absorptance
  0.7;                                    ! Visible Absorptance

OS:Construction,
  {79a1e271-c6fc-4141-b06d-f4cdf7d74980}, ! Handle
  Title 24-2008 Nonres 4 Ext Slab Unheated - 4in Slab with Carpet, ! Name
  ,                                       ! Surface Rendering Name
  {0ab69181-5187-40de-a777-51f643cdb01e}, ! Layer 1
  {02a3c809-e025-400b-afaf-bbc72783822b}; ! Layer 2

OS:ComponentCost:LineItem,
  {1da40603-0223-4cab-add7-1c4a827ea69b}, ! Handle
  Title 24-2008 Nonres 4 Ext Slab Unheated - 4in Slab with Carpet, ! Name
  ,                                       ! Type
  Construction,                           ! Line Item Type
  Title 24-2008 Nonres 4 Ext Slab Unheated - 4in Slab with Carpet, ! Item Name
  ,                                       ! Object End Use Key
  ,                                       ! Quantity {dimensionless}
  45.52,                                  ! Material Cost {$}
  CostPerArea;                            ! Material Cost Units

