
OS:Version,
  {0e3bbce3-adbc-4265-8baf-12884b50cf48}, ! Handle
  0.9.3;                                  ! Version Identifier

OS:Construction,
  {e8004be6-efa3-43e5-be9f-2694aea554a8}, ! Handle
  90.1-1999 Res B12 Window Fixed,         ! Name
  ,                                       ! Surface Rendering Name
  {4149436b-af65-4721-8b81-70f528aa7334}; ! Layer 1

OS:WindowMaterial:Glazing,
  {4149436b-af65-4721-8b81-70f528aa7334}, ! Handle
  Theoretical Glass [89],                 ! Name
  SpectralAverage,                        ! Optical Data Type
  ,                                       ! Window Glass Spectral Data Set Name
  0.003,                                  ! Thickness {m}
  0.702293,                               ! Solar Transmittance at Normal Incidence
  0.247707,                               ! Front Side Solar Reflectance at Normal Incidence
  0.247707,                               ! Back Side Solar Reflectance at Normal Incidence
  0.719298,                               ! Visible Transmittance at Normal Incidence
  0.230702,                               ! Front Side Visible Reflectance at Normal Incidence
  0.230702,                               ! Back Side Visible Reflectance at Normal Incidence
  0,                                      ! Infrared Transmittance at Normal Incidence
  0.9,                                    ! Front Side Infrared Hemispherical Emissivity
  0.9,                                    ! Back Side Infrared Hemispherical Emissivity
  0.0381546;                              ! Conductivity {W/m-K}

OS:ComponentCost:LineItem,
  {22b58981-63f5-4b42-ae73-9092177793a9}, ! Handle
  90.1-1999 Res B12 Window Fixed,         ! Name
  ,                                       ! Type
  Construction,                           ! Line Item Type
  90.1-1999 Res B12 Window Fixed,         ! Item Name
  ,                                       ! Object End Use Key
  ,                                       ! Quantity {dimensionless}
  477.696,                                ! Material Cost {$}
  CostPerArea;                            ! Material Cost Units

