
OS:Version,
  {e543e9a2-6e14-4faa-a0df-dffa51e8dcc2}, ! Handle
  0.9.3;                                  ! Version Identifier

OS:Construction,
  {d35bd9fb-4ce2-4491-8b7e-43bc0b7eb103}, ! Handle
  90.1-1999 Res B12 Window Fixed,         ! Name
  ,                                       ! Surface Rendering Name
  {15d15b7b-a6e6-467d-be63-f6ce2407725d}; ! Layer 1

OS:WindowMaterial:Glazing,
  {15d15b7b-a6e6-467d-be63-f6ce2407725d}, ! Handle
  Theoretical Glass [89],                 ! Name
  SpectralAverage,                        ! Optical Data Type
  ,                                       ! Window Glass Spectral Data Set Name
  0.003,                                  ! Thickness {m}
  0.702293,                               ! Solar Transmittance at Normal Incidence
  0.247707,                               ! Front Side Solar Reflectance at Normal Incidence
  0.247707,                               ! Back Side Solar Reflectance at Normal Incidence
  0.719298,                               ! Visible Transmittance at Normal Incidence
  0.230702,                               ! Front Side Visible Reflectance at Normal Incidence
  0.230702,                               ! Back Side Visible Reflectance at Normal Incidence
  0,                                      ! Infrared Transmittance at Normal Incidence
  0.9,                                    ! Front Side Infrared Hemispherical Emissivity
  0.9,                                    ! Back Side Infrared Hemispherical Emissivity
  0.0381546;                              ! Conductivity {W/m-K}

OS:ComponentCost:LineItem,
  {e0680975-8a19-4e22-b4e8-c80e217adc03}, ! Handle
  90.1-1999 Res B12 Window Fixed,         ! Name
  ,                                       ! Type
  Construction,                           ! Line Item Type
  90.1-1999 Res B12 Window Fixed,         ! Item Name
  ,                                       ! Object End Use Key
  ,                                       ! Quantity {dimensionless}
  477.696,                                ! Material Cost {$}
  CostPerArea;                            ! Material Cost Units

OS:ComponentData,
  {376564fe-5de3-4c9a-af81-712f005a32bc}, ! Handle
  Component Data 1,                       ! Name
  {b1b9dedc-6053-44bb-9638-0916621c94e7}, ! UUID
  {84dfc465-226e-463f-ad3d-43758208cb5d}, ! Version UUID
  1363981218,                             ! Creation Timestamp
  1363981218,                             ! Version Timestamp
  {d35bd9fb-4ce2-4491-8b7e-43bc0b7eb103}, ! Name of Object 1
  {15d15b7b-a6e6-467d-be63-f6ce2407725d}, ! Name of Object 2
  {e0680975-8a19-4e22-b4e8-c80e217adc03}; ! Name of Object 3

