
! 
OS:Version,
  {8503bb35-3288-4176-9c41-752f3d976c4b}, !- Handle
  1.13.0;                                 !- Version Identifier


! 
OS:Material,
  {08c09f98-4944-4ba9-ba8f-948406fd0cde}, !- Handle
  Aislamiento: 
WEBER: weber.therm placa de corcho 80 (0.080 m)
R: 2.0 m2K/W,                             !- Name
  MediumRough,                                 !- Roughness
  0.08,                                    !- Thickness {m}
  0.04,                                    !- Conductivity {W/m-K}
  110.0,                                    !- Density {kg/m3}
  1852.0,                                    !- Specific Heat {J/kg-K}
  0.9,                                    !- Thermal Absorptance
  0.6,                                    !- Solar Absorptance
  0.6;                                    !- Visible Absorptance

