
OS:Version,
  {50a517ff-ed50-404c-9c7c-a882c2aedaef}, ! Handle
  0.9.3;                                  ! Version Identifier

OS:Construction,
  {74c99d37-1e78-467e-b55e-21609d033a3a}, ! Handle
  90.1-2001 Res B19 Ext Wall Steel-Framed, ! Name
  ,                                       ! Surface Rendering Name
  {db6f95f2-545c-429c-a79f-7fef88944611}, ! Layer 1
  {7a55e1f7-2e10-4c53-aece-aa91043bc229}, ! Layer 2
  {2f826fd0-4b56-42b7-a80f-c2935a448399}; ! Layer 3

OS:Material:NoMass,
  {db6f95f2-545c-429c-a79f-7fef88944611}, ! Handle
  MAT-SHEATH,                             ! Name
  Rough,                                  ! Roughness
  0.36256,                                ! Thermal Resistance {m2-K/W}
  0.9,                                    ! Thermal Absorptance
  0.7,                                    ! Solar Absorptance
  0.7;                                    ! Visible Absorptance

OS:Material,
  {7a55e1f7-2e10-4c53-aece-aa91043bc229}, ! Handle
  Wall Insulation [10],                   ! Name
  MediumRough,                            ! Roughness
  0.0971136,                              ! Thickness {m}
  0.045,                                  ! Conductivity {W/m-K}
  265,                                    ! Density {kg/m3}
  836.8,                                  ! Specific Heat {J/kg-K}
  0.9,                                    ! Thermal Absorptance
  0.7,                                    ! Solar Absorptance
  0.7;                                    ! Visible Absorptance

OS:Material,
  {2f826fd0-4b56-42b7-a80f-c2935a448399}, ! Handle
  1/2IN Gypsum,                           ! Name
  Smooth,                                 ! Roughness
  0.01271,                                ! Thickness {m}
  0.16,                                   ! Conductivity {W/m-K}
  784.9,                                  ! Density {kg/m3}
  830,                                    ! Specific Heat {J/kg-K}
  0.9,                                    ! Thermal Absorptance
  0.92,                                   ! Solar Absorptance
  0.92;                                   ! Visible Absorptance

OS:ComponentCost:LineItem,
  {2e51ac3a-c4f6-4147-84aa-db516d8356eb}, ! Handle
  90.1-2001 Res B19 Ext Wall Steel-Framed, ! Name
  ,                                       ! Type
  Construction,                           ! Line Item Type
  90.1-2001 Res B19 Ext Wall Steel-Framed, ! Item Name
  ,                                       ! Object End Use Key
  ,                                       ! Quantity {dimensionless}
  94.657,                                 ! Material Cost {$}
  CostPerArea;                            ! Material Cost Units

