
OS:Version,
  {c8e69015-f07c-44f3-8696-b64b19478044}, !- Handle
  1.1.0;                                  !- Version Identifier

OS:Construction,
  {79ad5e81-8c95-49b5-90e7-ecc53e51d627}, !- Handle
  Dbl Elec Abs Colored 6mm/13mm Air,      !- Name
  ,                                       !- Surface Rendering Name
  {a565d403-f5e9-473c-88c2-f5303ccaa547}, !- Layer 1
  {291efa1d-3225-4eb3-ba3a-63fca6105379}, !- Layer 2
  {ba8b584d-4a9f-4ea0-8021-5b71804cb35e}; !- Layer 3

OS:WindowMaterial:Glazing,
  {a565d403-f5e9-473c-88c2-f5303ccaa547}, !- Handle
  ECABS-2 COLORED 6MM,                    !- Name
  SpectralAverage,                        !- Optical Data Type
  ,                                       !- Window Glass Spectral Data Set Name
  0.006,                                  !- Thickness {m}
  0.111,                                  !- Solar Transmittance at Normal Incidence
  0.179,                                  !- Front Side Solar Reflectance at Normal Incidence
  0.179,                                  !- Back Side Solar Reflectance at Normal Incidence
  0.128,                                  !- Visible Transmittance at Normal Incidence
  0.081,                                  !- Front Side Visible Reflectance at Normal Incidence
  0.081,                                  !- Back Side Visible Reflectance at Normal Incidence
  0,                                      !- Infrared Transmittance at Normal Incidence
  0.84,                                   !- Front Side Infrared Hemispherical Emissivity
  0.1,                                    !- Back Side Infrared Hemispherical Emissivity
  0.9;                                    !- Conductivity {W/m-K}

OS:WindowMaterial:Gas,
  {291efa1d-3225-4eb3-ba3a-63fca6105379}, !- Handle
  AIR 13MM,                               !- Name
  Air,                                    !- Gas Type
  0.0127;                                 !- Thickness {m}

OS:WindowMaterial:Glazing,
  {ba8b584d-4a9f-4ea0-8021-5b71804cb35e}, !- Handle
  CLEAR 6MM,                              !- Name
  SpectralAverage,                        !- Optical Data Type
  ,                                       !- Window Glass Spectral Data Set Name
  0.006,                                  !- Thickness {m}
  0.775,                                  !- Solar Transmittance at Normal Incidence
  0.071,                                  !- Front Side Solar Reflectance at Normal Incidence
  0.071,                                  !- Back Side Solar Reflectance at Normal Incidence
  0.881,                                  !- Visible Transmittance at Normal Incidence
  0.08,                                   !- Front Side Visible Reflectance at Normal Incidence
  0.08,                                   !- Back Side Visible Reflectance at Normal Incidence
  0,                                      !- Infrared Transmittance at Normal Incidence
  0.84,                                   !- Front Side Infrared Hemispherical Emissivity
  0.84,                                   !- Back Side Infrared Hemispherical Emissivity
  0.9;                                    !- Conductivity {W/m-K}

