
OS:Version,
  {1527c2c7-c8fc-42c3-8338-cee73ab9512a}, !- Handle
  1.1.0;                                  !- Version Identifier

OS:Construction,
  {5cf8f4e8-817f-45d9-b556-115df1ffaf00}, !- Handle
  Trp LoE Film (55) Clr 6mm/6mm Air,      !- Name
  ,                                       !- Surface Rendering Name
  {7b8fd2cd-1894-4f30-a690-7245e40c626f}, !- Layer 1
  {04ef4f63-946f-406e-9e7d-df8966553594}, !- Layer 2
  {f0efdb60-937c-4d39-af8d-b3d529180f9a}, !- Layer 3
  {04ef4f63-946f-406e-9e7d-df8966553594}, !- Layer 4
  {7b8fd2cd-1894-4f30-a690-7245e40c626f}; !- Layer 5

OS:WindowMaterial:Glazing,
  {7b8fd2cd-1894-4f30-a690-7245e40c626f}, !- Handle
  CLEAR 6MM,                              !- Name
  SpectralAverage,                        !- Optical Data Type
  ,                                       !- Window Glass Spectral Data Set Name
  0.006,                                  !- Thickness {m}
  0.775,                                  !- Solar Transmittance at Normal Incidence
  0.071,                                  !- Front Side Solar Reflectance at Normal Incidence
  0.071,                                  !- Back Side Solar Reflectance at Normal Incidence
  0.881,                                  !- Visible Transmittance at Normal Incidence
  0.08,                                   !- Front Side Visible Reflectance at Normal Incidence
  0.08,                                   !- Back Side Visible Reflectance at Normal Incidence
  0,                                      !- Infrared Transmittance at Normal Incidence
  0.84,                                   !- Front Side Infrared Hemispherical Emissivity
  0.84,                                   !- Back Side Infrared Hemispherical Emissivity
  0.9;                                    !- Conductivity {W/m-K}

OS:WindowMaterial:Gas,
  {04ef4f63-946f-406e-9e7d-df8966553594}, !- Handle
  AIR 6MM,                                !- Name
  Air,                                    !- Gas Type
  0.0063;                                 !- Thickness {m}

OS:WindowMaterial:Glazing,
  {f0efdb60-937c-4d39-af8d-b3d529180f9a}, !- Handle
  COATED POLY-55,                         !- Name
  SpectralAverage,                        !- Optical Data Type
  ,                                       !- Window Glass Spectral Data Set Name
  0.00051,                                !- Thickness {m}
  0.32,                                   !- Solar Transmittance at Normal Incidence
  0.582,                                  !- Front Side Solar Reflectance at Normal Incidence
  0.593,                                  !- Back Side Solar Reflectance at Normal Incidence
  0.551,                                  !- Visible Transmittance at Normal Incidence
  0.336,                                  !- Front Side Visible Reflectance at Normal Incidence
  0.375,                                  !- Back Side Visible Reflectance at Normal Incidence
  0,                                      !- Infrared Transmittance at Normal Incidence
  0.046,                                  !- Front Side Infrared Hemispherical Emissivity
  0.72,                                   !- Back Side Infrared Hemispherical Emissivity
  0.14;                                   !- Conductivity {W/m-K}

