
OS:Version,
  {7fbcc413-b0e6-4c3c-b881-7bb93455f581}, ! Handle
  0.9.3;                                  ! Version Identifier

OS:Construction,
  {9b365e6c-34d9-40fb-be1b-897e5b131f8e}, ! Handle
  189.1-2009 Res 1A Ext Wall Wood-Framed and Other, ! Name
  ,                                       ! Surface Rendering Name
  {bc7c6962-9d1d-4359-91b9-11a286b97216}, ! Layer 1
  {6d03c362-5061-4bfd-b88c-0f6af8ef9900}, ! Layer 2
  {92134982-cb10-4510-aef9-a8ce7a82e649}; ! Layer 3

OS:Material,
  {bc7c6962-9d1d-4359-91b9-11a286b97216}, ! Handle
  Wood Siding,                            ! Name
  MediumSmooth,                           ! Roughness
  0.01,                                   ! Thickness {m}
  0.11,                                   ! Conductivity {W/m-K}
  544.62,                                 ! Density {kg/m3}
  1210,                                   ! Specific Heat {J/kg-K}
  0.9,                                    ! Thermal Absorptance
  0.78,                                   ! Solar Absorptance
  0.78;                                   ! Visible Absorptance

OS:Material,
  {6d03c362-5061-4bfd-b88c-0f6af8ef9900}, ! Handle
  Wall Insulation [34],                   ! Name
  MediumRough,                            ! Roughness
  0.110422,                               ! Thickness {m}
  0.045,                                  ! Conductivity {W/m-K}
  265,                                    ! Density {kg/m3}
  836.8,                                  ! Specific Heat {J/kg-K}
  0.9,                                    ! Thermal Absorptance
  0.7,                                    ! Solar Absorptance
  0.7;                                    ! Visible Absorptance

OS:Material,
  {92134982-cb10-4510-aef9-a8ce7a82e649}, ! Handle
  1/2IN Gypsum,                           ! Name
  Smooth,                                 ! Roughness
  0.01271,                                ! Thickness {m}
  0.16,                                   ! Conductivity {W/m-K}
  784.9,                                  ! Density {kg/m3}
  830,                                    ! Specific Heat {J/kg-K}
  0.9,                                    ! Thermal Absorptance
  0.92,                                   ! Solar Absorptance
  0.92;                                   ! Visible Absorptance

OS:ComponentCost:LineItem,
  {a59b168e-72c8-4889-a87f-3a535940d9e5}, ! Handle
  189.1-2009 Res 1A Ext Wall Wood-Framed and Other, ! Name
  ,                                       ! Type
  Construction,                           ! Line Item Type
  189.1-2009 Res 1A Ext Wall Wood-Framed and Other, ! Item Name
  ,                                       ! Object End Use Key
  ,                                       ! Quantity {dimensionless}
  77.743,                                 ! Material Cost {$}
  CostPerArea;                            ! Material Cost Units

OS:ComponentData,
  {760952e6-fd6f-40e0-bf5c-2fd3f0859b9b}, ! Handle
  Component Data 1,                       ! Name
  {499a894f-b065-4f2f-afce-ffc33872d940}, ! UUID
  {9b051ecb-ce84-4ed4-9786-207edcd47333}, ! Version UUID
  1363980959,                             ! Creation Timestamp
  1363980959,                             ! Version Timestamp
  {9b365e6c-34d9-40fb-be1b-897e5b131f8e}, ! Name of Object 1
  {bc7c6962-9d1d-4359-91b9-11a286b97216}, ! Name of Object 2
  {6d03c362-5061-4bfd-b88c-0f6af8ef9900}, ! Name of Object 3
  {92134982-cb10-4510-aef9-a8ce7a82e649}, ! Name of Object 4
  {a59b168e-72c8-4889-a87f-3a535940d9e5}; ! Name of Object 5

