
OS:Version,
  {99c2c9b5-aa60-4eb3-9e83-b9b168e82621}, ! Handle
  0.9.3;                                  ! Version Identifier

OS:Material,
  {b9b422cc-7549-4d70-9a94-9454e5563283}, ! Handle
  Wood Siding,                            ! Name
  MediumSmooth,                           ! Roughness
  0.01,                                   ! Thickness {m}
  0.11,                                   ! Conductivity {W/m-K}
  544.62,                                 ! Density {kg/m3}
  1210,                                   ! Specific Heat {J/kg-K}
  0.9,                                    ! Thermal Absorptance
  0.78,                                   ! Solar Absorptance
  0.78;                                   ! Visible Absorptance

OS:Material,
  {4413beae-a585-4e64-b41f-69419e70b746}, ! Handle
  1/2IN Gypsum,                           ! Name
  Smooth,                                 ! Roughness
  0.01271,                                ! Thickness {m}
  0.16,                                   ! Conductivity {W/m-K}
  784.9,                                  ! Density {kg/m3}
  830,                                    ! Specific Heat {J/kg-K}
  0.9,                                    ! Thermal Absorptance
  0.92,                                   ! Solar Absorptance
  0.92;                                   ! Visible Absorptance

OS:Construction,
  {b8789cc2-580f-479b-8da0-23d11fa37e7f}, ! Handle
  189.1-2009 Res 1A Ext Wall Wood-Framed and Other, ! Name
  ,                                       ! Surface Rendering Name
  {b9b422cc-7549-4d70-9a94-9454e5563283}, ! Layer 1
  {8f8732aa-22c2-4afb-b665-a728d4df95e8}, ! Layer 2
  {4413beae-a585-4e64-b41f-69419e70b746}; ! Layer 3

OS:Material,
  {8f8732aa-22c2-4afb-b665-a728d4df95e8}, ! Handle
  Wall Insulation [34],                   ! Name
  MediumRough,                            ! Roughness
  0.110422,                               ! Thickness {m}
  0.045,                                  ! Conductivity {W/m-K}
  265,                                    ! Density {kg/m3}
  836.8,                                  ! Specific Heat {J/kg-K}
  0.9,                                    ! Thermal Absorptance
  0.7,                                    ! Solar Absorptance
  0.7;                                    ! Visible Absorptance

OS:ComponentCost:LineItem,
  {a88bb2d2-53db-4380-8d69-c59de683403a}, ! Handle
  189.1-2009 Res 1A Ext Wall Wood-Framed and Other, ! Name
  ,                                       ! Type
  Construction,                           ! Line Item Type
  189.1-2009 Res 1A Ext Wall Wood-Framed and Other, ! Item Name
  ,                                       ! Object End Use Key
  ,                                       ! Quantity {dimensionless}
  77.743,                                 ! Material Cost {$}
  CostPerArea;                            ! Material Cost Units

