
OS:Version,
  {255eba0a-6be5-46d7-80ba-36acc48247c7}, ! Handle
  0.9.3;                                  ! Version Identifier

OS:Material,
  {8996f6ef-13dd-47a8-8c43-14176ba2f66a}, ! Handle
  GP01 1/2 GYPSUM,                        ! Name
  Smooth,                                 ! Roughness
  0.01271,                                ! Thickness {m}
  0.16,                                   ! Conductivity {W/m-K}
  800,                                    ! Density {kg/m3}
  1090,                                   ! Specific Heat {J/kg-K}
  0.9,                                    ! Thermal Absorptance
  0.7,                                    ! Solar Absorptance
  0.5;                                    ! Visible Absorptance

OS:ComponentCost:LineItem,
  {eb80331b-2bf6-404f-ae72-7cef8d0ce41c}, ! Handle
  90.1-2001 Res B12 Int Wall,             ! Name
  ,                                       ! Type
  Construction,                           ! Line Item Type
  90.1-2001 Res B12 Int Wall,             ! Item Name
  ,                                       ! Object End Use Key
  ,                                       ! Quantity {dimensionless}
  0,                                      ! Material Cost {$}
  CostPerArea;                            ! Material Cost Units

OS:Construction,
  {16c8ac07-0e74-4ead-a879-b1e85a1b202e}, ! Handle
  90.1-2001 Res B12 Int Wall,             ! Name
  ,                                       ! Surface Rendering Name
  {8996f6ef-13dd-47a8-8c43-14176ba2f66a}, ! Layer 1
  {8996f6ef-13dd-47a8-8c43-14176ba2f66a}; ! Layer 2

OS:Material,
  {d46ff880-515d-4d7f-9857-7279aed68e2f}, ! Handle
  GP01 1/2 GYPSUM 1,                      ! Name
  Smooth,                                 ! Roughness
  0.01271,                                ! Thickness {m}
  0.16,                                   ! Conductivity {W/m-K}
  800,                                    ! Density {kg/m3}
  1090,                                   ! Specific Heat {J/kg-K}
  0.9,                                    ! Thermal Absorptance
  0.7,                                    ! Solar Absorptance
  0.5;                                    ! Visible Absorptance

