
OS:Version,
  {841d99cf-3f17-4c0d-88db-d4332aaf4185}, ! Handle
  0.9.3;                                  ! Version Identifier

OS:Construction,
  {815a9e79-ab4a-4e65-a275-b3efda6586bb}, ! Handle
  90.1-2001 Res B12 Int Wall,             ! Name
  ,                                       ! Surface Rendering Name
  {fb81f038-ae5c-4875-a3aa-c44bd13211a6}, ! Layer 1
  {fb81f038-ae5c-4875-a3aa-c44bd13211a6}; ! Layer 2

OS:Material,
  {fb81f038-ae5c-4875-a3aa-c44bd13211a6}, ! Handle
  GP01 1/2 GYPSUM,                        ! Name
  Smooth,                                 ! Roughness
  0.01271,                                ! Thickness {m}
  0.16,                                   ! Conductivity {W/m-K}
  800,                                    ! Density {kg/m3}
  1090,                                   ! Specific Heat {J/kg-K}
  0.9,                                    ! Thermal Absorptance
  0.7,                                    ! Solar Absorptance
  0.5;                                    ! Visible Absorptance

OS:ComponentCost:LineItem,
  {21981e11-4c4d-4f3c-bda5-37647f6b677d}, ! Handle
  90.1-2001 Res B12 Int Wall,             ! Name
  ,                                       ! Type
  Construction,                           ! Line Item Type
  90.1-2001 Res B12 Int Wall,             ! Item Name
  ,                                       ! Object End Use Key
  ,                                       ! Quantity {dimensionless}
  0,                                      ! Material Cost {$}
  CostPerArea;                            ! Material Cost Units

OS:ComponentData,
  {9ff79bef-4053-45a7-818b-c5db06dab1ac}, ! Handle
  Component Data 1,                       ! Name
  {eb24e3f8-92c0-48df-b715-076fdadb1b3d}, ! UUID
  {8eb7d9ea-fbd5-448d-a3c3-a3cc64099d49}, ! Version UUID
  1363981514,                             ! Creation Timestamp
  1363981514,                             ! Version Timestamp
  {815a9e79-ab4a-4e65-a275-b3efda6586bb}, ! Name of Object 1
  {fb81f038-ae5c-4875-a3aa-c44bd13211a6}, ! Name of Object 2
  {21981e11-4c4d-4f3c-bda5-37647f6b677d}; ! Name of Object 3

