
OS:Version,
  {545e4472-9483-42bc-94df-eaa9c0e12d29}, ! Handle
  0.9.3;                                  ! Version Identifier

OS:ComponentCost:LineItem,
  {1ce41c98-acf7-4ab1-87a9-b92e6270ba6f}, ! Handle
  90.1-2001 Res B8 Skylight without Curb, ! Name
  ,                                       ! Type
  Construction,                           ! Line Item Type
  90.1-2001 Res B8 Skylight without Curb, ! Item Name
  ,                                       ! Object End Use Key
  ,                                       ! Quantity {dimensionless}
  527.515,                                ! Material Cost {$}
  CostPerArea;                            ! Material Cost Units

OS:Construction,
  {1f23e881-e4bb-4ed7-8535-d3a32ccb49b8}, ! Handle
  90.1-2001 Res B8 Skylight without Curb, ! Name
  ,                                       ! Surface Rendering Name
  {dc9cbc7c-db62-4cfb-8f28-97268a371e41}; ! Layer 1

OS:WindowMaterial:Glazing,
  {dc9cbc7c-db62-4cfb-8f28-97268a371e41}, ! Handle
  Theoretical Glass [68],                 ! Name
  SpectralAverage,                        ! Optical Data Type
  ,                                       ! Window Glass Spectral Data Set Name
  0.003,                                  ! Thickness {m}
  0.346211,                               ! Solar Transmittance at Normal Incidence
  0.603789,                               ! Front Side Solar Reflectance at Normal Incidence
  0.603789,                               ! Back Side Solar Reflectance at Normal Incidence
  0.360158,                               ! Visible Transmittance at Normal Incidence
  0.589842,                               ! Front Side Visible Reflectance at Normal Incidence
  0.589842,                               ! Back Side Visible Reflectance at Normal Incidence
  0,                                      ! Infrared Transmittance at Normal Incidence
  0.999,                                  ! Front Side Infrared Hemispherical Emissivity
  0.999,                                  ! Back Side Infrared Hemispherical Emissivity
  72.7123;                                ! Conductivity {W/m-K}

