
OS:Version,
  {1eb7a2af-5da7-48e8-8b62-68e094285ec1}, ! Handle
  0.9.3;                                  ! Version Identifier

OS:ComponentCost:LineItem,
  {c0d18328-629c-4bc3-953c-c3a65e114730}, ! Handle
  90.1-2001 Res B12 Ext Slab Unheated - 4in Slab without Carpet, ! Name
  ,                                       ! Type
  Construction,                           ! Line Item Type
  90.1-2001 Res B12 Ext Slab Unheated - 4in Slab without Carpet, ! Item Name
  ,                                       ! Object End Use Key
  ,                                       ! Quantity {dimensionless}
  45.52,                                  ! Material Cost {$}
  CostPerArea;                            ! Material Cost Units

OS:Construction,
  {8e732eb9-476b-42d6-a9bb-063e5a771c3a}, ! Handle
  90.1-2001 Res B12 Ext Slab Unheated - 4in Slab without Carpet, ! Name
  ,                                       ! Surface Rendering Name
  {67a73d3b-6bad-4090-83a0-1c31d686255b}; ! Layer 1

OS:Material,
  {67a73d3b-6bad-4090-83a0-1c31d686255b}, ! Handle
  MAT-CC05 4 HW CONCRETE,                 ! Name
  Rough,                                  ! Roughness
  0.1016,                                 ! Thickness {m}
  1.311,                                  ! Conductivity {W/m-K}
  2240,                                   ! Density {kg/m3}
  836.8,                                  ! Specific Heat {J/kg-K}
  0.9,                                    ! Thermal Absorptance
  0.7,                                    ! Solar Absorptance
  0.7;                                    ! Visible Absorptance

