
OS:Version,
  {a5286964-4ab8-4dfd-889e-cf4acb6ae1ad}, ! Handle
  0.9.3;                                  ! Version Identifier

OS:Construction,
  {c8308c98-f22e-414a-ab1f-3a387c208e3b}, ! Handle
  90.1-1999 Res B14 Ext Wall Metal Building, ! Name
  ,                                       ! Surface Rendering Name
  {21bc9878-5d76-4f45-824b-f9264e1cb8b4}, ! Layer 1
  {eae3a7ec-bd14-4275-a2d9-ff730a1be55b}, ! Layer 2
  {787d57ea-5ae1-463c-8bee-7a087c81c023}; ! Layer 3

OS:Material,
  {21bc9878-5d76-4f45-824b-f9264e1cb8b4}, ! Handle
  Metal Siding,                           ! Name
  Smooth,                                 ! Roughness
  0.0015,                                 ! Thickness {m}
  44.96,                                  ! Conductivity {W/m-K}
  7688.86,                                ! Density {kg/m3}
  410,                                    ! Specific Heat {J/kg-K}
  0.9,                                    ! Thermal Absorptance
  0.2,                                    ! Solar Absorptance
  0.2;                                    ! Visible Absorptance

OS:Material,
  {eae3a7ec-bd14-4275-a2d9-ff730a1be55b}, ! Handle
  Wall Insulation,                        ! Name
  MediumRough,                            ! Roughness
  0.0598725,                              ! Thickness {m}
  0.045,                                  ! Conductivity {W/m-K}
  265,                                    ! Density {kg/m3}
  836.8,                                  ! Specific Heat {J/kg-K}
  0.9,                                    ! Thermal Absorptance
  0.7,                                    ! Solar Absorptance
  0.7;                                    ! Visible Absorptance

OS:Material,
  {787d57ea-5ae1-463c-8bee-7a087c81c023}, ! Handle
  1/2IN Gypsum,                           ! Name
  Smooth,                                 ! Roughness
  0.01271,                                ! Thickness {m}
  0.16,                                   ! Conductivity {W/m-K}
  784.9,                                  ! Density {kg/m3}
  830,                                    ! Specific Heat {J/kg-K}
  0.9,                                    ! Thermal Absorptance
  0.92,                                   ! Solar Absorptance
  0.92;                                   ! Visible Absorptance

OS:ComponentCost:LineItem,
  {4ea0ff3a-b71c-49de-95c1-3a5b73425ba8}, ! Handle
  90.1-1999 Res B14 Ext Wall Metal Building, ! Name
  ,                                       ! Type
  Construction,                           ! Line Item Type
  90.1-1999 Res B14 Ext Wall Metal Building, ! Item Name
  ,                                       ! Object End Use Key
  ,                                       ! Quantity {dimensionless}
  98.78,                                  ! Material Cost {$}
  CostPerArea;                            ! Material Cost Units

