
OS:Version,
  {b2647dd9-01b4-467b-bfca-caca97da742e}, ! Handle
  0.9.3;                                  ! Version Identifier

OS:Material,
  {923b664e-096a-4464-87c7-fe8bd11d46c9}, ! Handle
  MAT-CC05 4 HW CONCRETE,                 ! Name
  Rough,                                  ! Roughness
  0.1016,                                 ! Thickness {m}
  1.311,                                  ! Conductivity {W/m-K}
  2240,                                   ! Density {kg/m3}
  836.8,                                  ! Specific Heat {J/kg-K}
  0.9,                                    ! Thermal Absorptance
  0.7,                                    ! Solar Absorptance
  0.7;                                    ! Visible Absorptance

OS:ComponentCost:LineItem,
  {476dbdaa-302b-4476-a33c-1b6878ae15c9}, ! Handle
  90.1-2001 Nonres B25 Ext Slab Unheated - 4in Slab without Carpet, ! Name
  ,                                       ! Type
  Construction,                           ! Line Item Type
  90.1-2001 Nonres B25 Ext Slab Unheated - 4in Slab without Carpet, ! Item Name
  ,                                       ! Object End Use Key
  ,                                       ! Quantity {dimensionless}
  45.52,                                  ! Material Cost {$}
  CostPerArea;                            ! Material Cost Units

OS:Construction,
  {8c68faaf-dcb9-452b-99da-62e7ab94b0ee}, ! Handle
  90.1-2001 Nonres B25 Ext Slab Unheated - 4in Slab without Carpet, ! Name
  ,                                       ! Surface Rendering Name
  {923b664e-096a-4464-87c7-fe8bd11d46c9}; ! Layer 1

