
OS:Version,
  {f4302bdd-bab3-4a70-803e-543158e04a7b}, ! Handle
  0.9.3;                                  ! Version Identifier

OS:Material,
  {15ecb55e-0ea7-458a-a77f-56b142f37f2d}, ! Handle
  Roof Insulation [1],                    ! Name
  MediumRough,                            ! Roughness
  0.123533,                               ! Thickness {m}
  0.049,                                  ! Conductivity {W/m-K}
  265,                                    ! Density {kg/m3}
  836.8,                                  ! Specific Heat {J/kg-K}
  0.9,                                    ! Thermal Absorptance
  0.7,                                    ! Solar Absorptance
  0.7;                                    ! Visible Absorptance

OS:Construction,
  {c2b4a76c-55dc-497e-831d-2f67297721fd}, ! Handle
  90.1-1999 Nonres B9 Roof Metal Building, ! Name
  ,                                       ! Surface Rendering Name
  {829c0588-8f7d-4623-a190-3d76e6655dd4}, ! Layer 1
  {15ecb55e-0ea7-458a-a77f-56b142f37f2d}; ! Layer 2

OS:Material,
  {829c0588-8f7d-4623-a190-3d76e6655dd4}, ! Handle
  Metal Roofing,                          ! Name
  MediumSmooth,                           ! Roughness
  0.001524,                               ! Thickness {m}
  45.006,                                 ! Conductivity {W/m-K}
  7680,                                   ! Density {kg/m3}
  418.4,                                  ! Specific Heat {J/kg-K}
  0.9,                                    ! Thermal Absorptance
  0.7,                                    ! Solar Absorptance
  0.3;                                    ! Visible Absorptance

OS:ComponentCost:LineItem,
  {3f01b130-aed6-427b-9f76-e11b9ca48bd5}, ! Handle
  90.1-1999 Nonres B9 Roof Metal Building, ! Name
  ,                                       ! Type
  Construction,                           ! Line Item Type
  90.1-1999 Nonres B9 Roof Metal Building, ! Item Name
  ,                                       ! Object End Use Key
  ,                                       ! Quantity {dimensionless}
  38.206,                                 ! Material Cost {$}
  CostPerArea;                            ! Material Cost Units

