
OS:Version,
  {58576922-099e-4711-b2a6-8275eeb04b72}, ! Handle
  0.9.3;                                  ! Version Identifier

OS:Material,
  {61ca0c0e-8229-4958-8e4c-0229bbe22ff0}, ! Handle
  Roof Insulation [14],                   ! Name
  MediumRough,                            ! Roughness
  0.167335,                               ! Thickness {m}
  0.049,                                  ! Conductivity {W/m-K}
  265,                                    ! Density {kg/m3}
  836.8,                                  ! Specific Heat {J/kg-K}
  0.9,                                    ! Thermal Absorptance
  0.7,                                    ! Solar Absorptance
  0.7;                                    ! Visible Absorptance

OS:ComponentCost:LineItem,
  {ea7d0a76-7643-4eca-a7b8-d19da9e963ad}, ! Handle
  90.1-2007 Res 7A Roof IEAD,             ! Name
  ,                                       ! Type
  Construction,                           ! Line Item Type
  90.1-2007 Res 7A Roof IEAD,             ! Item Name
  ,                                       ! Object End Use Key
  ,                                       ! Quantity {dimensionless}
  52.87,                                  ! Material Cost {$}
  CostPerArea;                            ! Material Cost Units

OS:Material,
  {c0e8af23-f28b-467c-a6fa-f675c5c7b57e}, ! Handle
  Metal Decking,                          ! Name
  MediumSmooth,                           ! Roughness
  0.001524,                               ! Thickness {m}
  45.006,                                 ! Conductivity {W/m-K}
  7680,                                   ! Density {kg/m3}
  418.4,                                  ! Specific Heat {J/kg-K}
  0.9,                                    ! Thermal Absorptance
  0.7,                                    ! Solar Absorptance
  0.3;                                    ! Visible Absorptance

OS:Material,
  {c92f0737-9ad8-473f-989d-4a52e9ad70c5}, ! Handle
  Roof Membrane,                          ! Name
  VeryRough,                              ! Roughness
  0.0095,                                 ! Thickness {m}
  0.16,                                   ! Conductivity {W/m-K}
  1121.29,                                ! Density {kg/m3}
  1460,                                   ! Specific Heat {J/kg-K}
  0.9,                                    ! Thermal Absorptance
  0.7,                                    ! Solar Absorptance
  0.7;                                    ! Visible Absorptance

OS:Construction,
  {c99f1fe3-eccb-4b07-b3ea-ee8dcef62db0}, ! Handle
  90.1-2007 Res 7A Roof IEAD,             ! Name
  ,                                       ! Surface Rendering Name
  {c92f0737-9ad8-473f-989d-4a52e9ad70c5}, ! Layer 1
  {61ca0c0e-8229-4958-8e4c-0229bbe22ff0}, ! Layer 2
  {c0e8af23-f28b-467c-a6fa-f675c5c7b57e}; ! Layer 3

