
OS:Version,
  {f6e02f68-9e38-48ea-acda-5c66b4a6fe89}, ! Handle
  0.9.3;                                  ! Version Identifier

OS:Construction,
  {14943f4a-3f4f-46d5-bdaa-9e5e202fcbc9}, ! Handle
  189.1-2009 Res 2A Ext Slab Unheated - 8in Slab without Carpet, ! Name
  ,                                       ! Surface Rendering Name
  {c03717bf-16cc-4f00-be22-2e407c2538e5}; ! Layer 1

OS:Material,
  {c03717bf-16cc-4f00-be22-2e407c2538e5}, ! Handle
  MAT-CC05 8 HW CONCRETE,                 ! Name
  Rough,                                  ! Roughness
  0.20321,                                ! Thickness {m}
  1.311,                                  ! Conductivity {W/m-K}
  2240,                                   ! Density {kg/m3}
  836.8,                                  ! Specific Heat {J/kg-K}
  0.9,                                    ! Thermal Absorptance
  0.7,                                    ! Solar Absorptance
  0.7;                                    ! Visible Absorptance

OS:ComponentCost:LineItem,
  {c8473cda-6e54-4cdd-ad26-c7d7bb979c44}, ! Handle
  189.1-2009 Res 2A Ext Slab Unheated - 8in Slab without Carpet, ! Name
  ,                                       ! Type
  Construction,                           ! Line Item Type
  189.1-2009 Res 2A Ext Slab Unheated - 8in Slab without Carpet, ! Item Name
  ,                                       ! Object End Use Key
  ,                                       ! Quantity {dimensionless}
  45.52,                                  ! Material Cost {$}
  CostPerArea;                            ! Material Cost Units

