
OS:Version,
  {60e9a491-e811-4ae2-923c-4924965d7d9f}, ! Handle
  0.9.3;                                  ! Version Identifier

OS:Construction,
  {4f5b5b20-720a-4d70-ae3d-667d023d3d0e}, ! Handle
  Title 24-2008 Nonres 11 Ext Wall Steel-Framed, ! Name
  ,                                       ! Surface Rendering Name
  {08cf62e4-bd9f-425f-9b63-c76b9b54a9a5}, ! Layer 1
  {6fcee2bd-c9cd-487c-85f6-90941500626a}, ! Layer 2
  {9d73efd6-af9d-46a0-a34c-28fbac9d6c51}; ! Layer 3

OS:Material:NoMass,
  {08cf62e4-bd9f-425f-9b63-c76b9b54a9a5}, ! Handle
  MAT-SHEATH,                             ! Name
  Rough,                                  ! Roughness
  0.36256,                                ! Thermal Resistance {m2-K/W}
  0.9,                                    ! Thermal Absorptance
  0.7,                                    ! Solar Absorptance
  0.7;                                    ! Visible Absorptance

OS:Material,
  {6fcee2bd-c9cd-487c-85f6-90941500626a}, ! Handle
  Wall Insulation [159],                  ! Name
  MediumRough,                            ! Roughness
  0.0812,                                 ! Thickness {m}
  0.045,                                  ! Conductivity {W/m-K}
  265,                                    ! Density {kg/m3}
  836.8,                                  ! Specific Heat {J/kg-K}
  0.9,                                    ! Thermal Absorptance
  0.7,                                    ! Solar Absorptance
  0.7;                                    ! Visible Absorptance

OS:Material,
  {9d73efd6-af9d-46a0-a34c-28fbac9d6c51}, ! Handle
  1/2IN Gypsum,                           ! Name
  Smooth,                                 ! Roughness
  0.01271,                                ! Thickness {m}
  0.16,                                   ! Conductivity {W/m-K}
  784.9,                                  ! Density {kg/m3}
  830,                                    ! Specific Heat {J/kg-K}
  0.9,                                    ! Thermal Absorptance
  0.92,                                   ! Solar Absorptance
  0.92;                                   ! Visible Absorptance

OS:ComponentCost:LineItem,
  {d9e04f35-6a14-4933-baa2-5442dc4ca8c0}, ! Handle
  Title 24-2008 Nonres 11 Ext Wall Steel-Framed, ! Name
  ,                                       ! Type
  Construction,                           ! Line Item Type
  Title 24-2008 Nonres 11 Ext Wall Steel-Framed, ! Item Name
  ,                                       ! Object End Use Key
  ,                                       ! Quantity {dimensionless}
  155.805,                                ! Material Cost {$}
  CostPerArea;                            ! Material Cost Units

OS:ComponentData,
  {ac20d904-d8ca-4fbf-9b2c-cb31fbf04a09}, ! Handle
  Component Data 1,                       ! Name
  {7ed30473-90fb-4df1-9cc0-74d109da29f5}, ! UUID
  {c0db1f46-ca06-4031-9f81-1e6396e2b765}, ! Version UUID
  1363982070,                             ! Creation Timestamp
  1363982070,                             ! Version Timestamp
  {4f5b5b20-720a-4d70-ae3d-667d023d3d0e}, ! Name of Object 1
  {08cf62e4-bd9f-425f-9b63-c76b9b54a9a5}, ! Name of Object 2
  {6fcee2bd-c9cd-487c-85f6-90941500626a}, ! Name of Object 3
  {9d73efd6-af9d-46a0-a34c-28fbac9d6c51}, ! Name of Object 4
  {d9e04f35-6a14-4933-baa2-5442dc4ca8c0}; ! Name of Object 5

