
OS:Version,
  {1f6b81b6-c81f-4ab7-8c66-4672b05474f6}, ! Handle
  0.9.3;                                  ! Version Identifier

OS:WindowMaterial:Glazing,
  {a9fe40af-7734-492f-aba0-1d66ef70de35}, ! Handle
  Theoretical Glass [7],                  ! Name
  SpectralAverage,                        ! Optical Data Type
  ,                                       ! Window Glass Spectral Data Set Name
  0.003,                                  ! Thickness {m}
  0.31664,                                ! Solar Transmittance at Normal Incidence
  0.63336,                                ! Front Side Solar Reflectance at Normal Incidence
  0.63336,                                ! Back Side Solar Reflectance at Normal Incidence
  0.34081,                                ! Visible Transmittance at Normal Incidence
  0.60919,                                ! Front Side Visible Reflectance at Normal Incidence
  0.60919,                                ! Back Side Visible Reflectance at Normal Incidence
  0,                                      ! Infrared Transmittance at Normal Incidence
  0.999,                                  ! Front Side Infrared Hemispherical Emissivity
  0.999,                                  ! Back Side Infrared Hemispherical Emissivity
  3.36874;                                ! Conductivity {W/m-K}

OS:Construction,
  {25abe59a-0de8-452a-a7c8-116052a75d1b}, ! Handle
  90.1-2001 Nonres B2 Window Fixed,       ! Name
  ,                                       ! Surface Rendering Name
  {a9fe40af-7734-492f-aba0-1d66ef70de35}; ! Layer 1

OS:ComponentCost:LineItem,
  {b386e100-84b0-4452-a187-537b294a61df}, ! Handle
  90.1-2001 Nonres B2 Window Fixed,       ! Name
  ,                                       ! Type
  Construction,                           ! Line Item Type
  90.1-2001 Nonres B2 Window Fixed,       ! Item Name
  ,                                       ! Object End Use Key
  ,                                       ! Quantity {dimensionless}
  473.607,                                ! Material Cost {$}
  CostPerArea;                            ! Material Cost Units

