
! 
OS:Version,
  {9c37d538-db0d-4a47-9850-5bede7e76bd5}, !- Handle
  1.13.0;                                 !- Version Identifier


! {"nombreProductoCorto": "CLIMALIT PLUS con COOL-LITE XTREME 60/28 F2 XN F5 6(14 argon90%) 4 (14 argon90%) 4", "codigoEAN": "", "handle": "8499c765-27ab-47d1-8eb2-6ae24d73208c", "g": 0.33, "tV": 0.48, "u": 0.6, "nombreProducto": "CLIMALIT PLUS con COOL-LITE XTREME 60/28 F2 XN F5 6(14 argon90%) 4 (14 argon90%) 4\nU:0.6 W/m2K - g:0.33 - Tv: 0.48"}
OS:WindowMaterial:SimpleGlazingSystem,
  {8499c765-27ab-47d1-8eb2-6ae24d73208c}, !- Handle
  CLIMALIT PLUS con COOL-LITE XTREME 60/28 F2 XN F5 6(14 argon90%) 4 (14 argon90%) 4, !- Name
  0.6,                                    !- U-Factor {W/m2-K}
  0.33,                                    !- Solar Heat Gain Coefficient
  0.48;                                    !- Visible Transmittance     
  
  
OS:Construction,
  {5805cfeb-5a10-4b5d-87d5-8181f335c03d}, !- Handle
  CLIMALIT PLUS con COOL-LITE XTREME 60/28 F2 XN F5 6(14 argon90%) 4 (14 argon90%) 4,                         !- Name
  ,                                       !- Surface Rendering Name
  {8499c765-27ab-47d1-8eb2-6ae24d73208c}; !- Layer 1  

