
OS:Version,
  {c0e6de91-3ad9-41ab-a838-3f08ce24db91}, ! Handle
  0.9.3;                                  ! Version Identifier

OS:Construction,
  {89e96b70-3123-494c-b7bf-bedb462e4191}, ! Handle
  90.1 Windows Window Fixed 3631 Vnl-Clr-Ins-V32-Ins-Clr, ! Name
  ,                                       ! Surface Rendering Name
  {e744bc83-713e-49c8-bd59-17625b438fd5}; ! Layer 1

OS:WindowMaterial:Glazing,
  {e744bc83-713e-49c8-bd59-17625b438fd5}, ! Handle
  Theoretical Glass [554],                ! Name
  SpectralAverage,                        ! Optical Data Type
  ,                                       ! Window Glass Spectral Data Set Name
  0.003,                                  ! Thickness {m}
  0.178614,                               ! Solar Transmittance at Normal Incidence
  0.771386,                               ! Front Side Solar Reflectance at Normal Incidence
  0.771386,                               ! Back Side Solar Reflectance at Normal Incidence
  0.24137,                                ! Visible Transmittance at Normal Incidence
  0.70863,                                ! Front Side Visible Reflectance at Normal Incidence
  0.70863,                                ! Back Side Visible Reflectance at Normal Incidence
  0,                                      ! Infrared Transmittance at Normal Incidence
  0.9,                                    ! Front Side Infrared Hemispherical Emissivity
  0.9,                                    ! Back Side Infrared Hemispherical Emissivity
  0.0052951;                              ! Conductivity {W/m-K}

OS:ComponentCost:LineItem,
  {713b801e-a877-478d-95e5-9d4afe68dd30}, ! Handle
  90.1 Windows Window Fixed 3631 Vnl-Clr-Ins-V32-Ins-Clr, ! Name
  ,                                       ! Type
  Construction,                           ! Line Item Type
  90.1 Windows Window Fixed 3631 Vnl-Clr-Ins-V32-Ins-Clr, ! Item Name
  ,                                       ! Object End Use Key
  ,                                       ! Quantity {dimensionless}
  0,                                      ! Material Cost {$}
  CostPerArea;                            ! Material Cost Units

