
OS:Version,
  {341899ce-41fb-47e7-96c0-e8730fe5cf91}, ! Handle
  0.9.3;                                  ! Version Identifier

OS:Construction,
  {c076e8a1-8ebc-448c-aab7-dd7c3ada820c}, ! Handle
  90.1 Windows Window Fixed 3631 Vnl-Clr-Ins-V32-Ins-Clr, ! Name
  ,                                       ! Surface Rendering Name
  {cb21fc84-3581-4494-868f-27e019ce5047}; ! Layer 1

OS:WindowMaterial:Glazing,
  {cb21fc84-3581-4494-868f-27e019ce5047}, ! Handle
  Theoretical Glass [554],                ! Name
  SpectralAverage,                        ! Optical Data Type
  ,                                       ! Window Glass Spectral Data Set Name
  0.003,                                  ! Thickness {m}
  0.178614,                               ! Solar Transmittance at Normal Incidence
  0.771386,                               ! Front Side Solar Reflectance at Normal Incidence
  0.771386,                               ! Back Side Solar Reflectance at Normal Incidence
  0.24137,                                ! Visible Transmittance at Normal Incidence
  0.70863,                                ! Front Side Visible Reflectance at Normal Incidence
  0.70863,                                ! Back Side Visible Reflectance at Normal Incidence
  0,                                      ! Infrared Transmittance at Normal Incidence
  0.9,                                    ! Front Side Infrared Hemispherical Emissivity
  0.9,                                    ! Back Side Infrared Hemispherical Emissivity
  0.0052951;                              ! Conductivity {W/m-K}

OS:ComponentCost:LineItem,
  {ccd0162c-a945-4925-919d-e810a547cd8a}, ! Handle
  90.1 Windows Window Fixed 3631 Vnl-Clr-Ins-V32-Ins-Clr, ! Name
  ,                                       ! Type
  Construction,                           ! Line Item Type
  90.1 Windows Window Fixed 3631 Vnl-Clr-Ins-V32-Ins-Clr, ! Item Name
  ,                                       ! Object End Use Key
  ,                                       ! Quantity {dimensionless}
  0,                                      ! Material Cost {$}
  CostPerArea;                            ! Material Cost Units

OS:ComponentData,
  {4e18bcb0-380f-4a7b-9e41-c03bd8fc1f81}, ! Handle
  Component Data 1,                       ! Name
  {16621775-ca13-4aec-86b8-ad944e5f80fb}, ! UUID
  {09057d6a-78f3-4cdc-9b8a-3c1620e07c9d}, ! Version UUID
  1363981029,                             ! Creation Timestamp
  1363981029,                             ! Version Timestamp
  {c076e8a1-8ebc-448c-aab7-dd7c3ada820c}, ! Name of Object 1
  {cb21fc84-3581-4494-868f-27e019ce5047}, ! Name of Object 2
  {ccd0162c-a945-4925-919d-e810a547cd8a}; ! Name of Object 3

