
OS:Version,
  {fa05b333-fd46-456c-a2ca-5397a6ec151c}, ! Handle
  0.9.3;                                  ! Version Identifier

OS:Material,
  {47637d0f-4d82-471b-88a4-1e9bf9ccfd8a}, ! Handle
  Roof Insulation [5],                    ! Name
  MediumRough,                            ! Roughness
  0.286906,                               ! Thickness {m}
  0.049,                                  ! Conductivity {W/m-K}
  265,                                    ! Density {kg/m3}
  836.8,                                  ! Specific Heat {J/kg-K}
  0.9,                                    ! Thermal Absorptance
  0.7,                                    ! Solar Absorptance
  0.7;                                    ! Visible Absorptance

OS:Material,
  {c44527dc-b57b-45d2-8678-9e936e9fd7ac}, ! Handle
  1/2IN Gypsum,                           ! Name
  Smooth,                                 ! Roughness
  0.01271,                                ! Thickness {m}
  0.16,                                   ! Conductivity {W/m-K}
  784.9,                                  ! Density {kg/m3}
  830,                                    ! Specific Heat {J/kg-K}
  0.9,                                    ! Thermal Absorptance
  0.92,                                   ! Solar Absorptance
  0.92;                                   ! Visible Absorptance

OS:Material,
  {155def8a-0cbc-49b6-9fef-43f12d0a76ff}, ! Handle
  Wood Shingles,                          ! Name
  VeryRough,                              ! Roughness
  0.0178,                                 ! Thickness {m}
  0.115,                                  ! Conductivity {W/m-K}
  513,                                    ! Density {kg/m3}
  1255,                                   ! Specific Heat {J/kg-K}
  0.9,                                    ! Thermal Absorptance
  0.78,                                   ! Solar Absorptance
  0.78;                                   ! Visible Absorptance

OS:Material,
  {42bacab5-d75d-41e8-8b8e-909703075f0f}, ! Handle
  1IN Wood Decking,                       ! Name
  MediumSmooth,                           ! Roughness
  0.0254,                                 ! Thickness {m}
  0.1211,                                 ! Conductivity {W/m-K}
  593,                                    ! Density {kg/m3}
  2510,                                   ! Specific Heat {J/kg-K}
  0.9,                                    ! Thermal Absorptance
  0.78,                                   ! Solar Absorptance
  0.78;                                   ! Visible Absorptance

OS:Construction,
  {d55d8cc5-4120-4bb3-9b6c-3f95e9cb6f2a}, ! Handle
  90.1-2001 Res B24 Roof Attic and Other, ! Name
  ,                                       ! Surface Rendering Name
  {155def8a-0cbc-49b6-9fef-43f12d0a76ff}, ! Layer 1
  {42bacab5-d75d-41e8-8b8e-909703075f0f}, ! Layer 2
  {47637d0f-4d82-471b-88a4-1e9bf9ccfd8a}, ! Layer 3
  {c44527dc-b57b-45d2-8678-9e936e9fd7ac}; ! Layer 4

OS:ComponentCost:LineItem,
  {25be8f6f-806e-469b-9ab5-a030fa6d815e}, ! Handle
  90.1-2001 Res B24 Roof Attic and Other, ! Name
  ,                                       ! Type
  Construction,                           ! Line Item Type
  90.1-2001 Res B24 Roof Attic and Other, ! Item Name
  ,                                       ! Object End Use Key
  ,                                       ! Quantity {dimensionless}
  34.757,                                 ! Material Cost {$}
  CostPerArea;                            ! Material Cost Units

