
OS:Version,
  {252986d5-1de4-4bdf-b60d-ad3d701718dc}, ! Handle
  0.9.3;                                  ! Version Identifier

OS:Material,
  {65fccfd2-a246-452d-8869-4f6aa2bd3ed1}, ! Handle
  AtticFloor Insulation,                  ! Name
  MediumRough,                            ! Roughness
  0.237853,                               ! Thickness {m}
  0.049,                                  ! Conductivity {W/m-K}
  265,                                    ! Density {kg/m3}
  836.8,                                  ! Specific Heat {J/kg-K}
  0.9,                                    ! Thermal Absorptance
  0.7,                                    ! Solar Absorptance
  0.7;                                    ! Visible Absorptance

OS:Construction,
  {a726c39b-6c48-4760-87d3-cf49c151b3f1}, ! Handle
  AEDG K12 Nonres 4B Attic Floor,         ! Name
  ,                                       ! Surface Rendering Name
  {57dbe2ae-b40a-46d4-acd2-53d055762e1c}, ! Layer 1
  {65fccfd2-a246-452d-8869-4f6aa2bd3ed1}, ! Layer 2
  {4b8f4b21-90f5-4f17-b2d6-7273556adb07}; ! Layer 3

OS:Material,
  {57dbe2ae-b40a-46d4-acd2-53d055762e1c}, ! Handle
  1/2IN Gypsum Top,                       ! Name
  Smooth,                                 ! Roughness
  0.01271,                                ! Thickness {m}
  0.16,                                   ! Conductivity {W/m-K}
  784.9,                                  ! Density {kg/m3}
  830,                                    ! Specific Heat {J/kg-K}
  0.9,                                    ! Thermal Absorptance
  0.92,                                   ! Solar Absorptance
  0.92;                                   ! Visible Absorptance

OS:Material,
  {4b8f4b21-90f5-4f17-b2d6-7273556adb07}, ! Handle
  1/2IN Gypsum Bottom,                    ! Name
  Smooth,                                 ! Roughness
  0.01271,                                ! Thickness {m}
  0.16,                                   ! Conductivity {W/m-K}
  784.9,                                  ! Density {kg/m3}
  830,                                    ! Specific Heat {J/kg-K}
  0.9,                                    ! Thermal Absorptance
  0.92,                                   ! Solar Absorptance
  0.92;                                   ! Visible Absorptance

OS:ComponentCost:LineItem,
  {fd4a0320-5be7-4109-a76d-e009e60c9087}, ! Handle
  AEDG K12 Nonres 4B Attic Floor,         ! Name
  ,                                       ! Type
  Construction,                           ! Line Item Type
  AEDG K12 Nonres 4B Attic Floor,         ! Item Name
  ,                                       ! Object End Use Key
  ,                                       ! Quantity {dimensionless}
  33.596,                                 ! Material Cost {$}
  CostPerArea;                            ! Material Cost Units

