
OS:Version,
  {42653716-0112-4479-b06e-dfe80a314006}, !- Handle
  1.1.0;                                  !- Version Identifier

OS:Construction,
  {bf8de271-e3f8-4b4f-ac37-2bca8aec62b7}, !- Handle
  Dbl Bronze 6mm/13mm Arg,                !- Name
  ,                                       !- Surface Rendering Name
  {d1412fe8-7eae-4240-a0e7-627b16aa04a1}, !- Layer 1
  {4519ccce-c28f-4a2a-8a0a-ea223546e1ea}, !- Layer 2
  {d1491c96-1af1-4435-b1b5-e74c29f8cac9}; !- Layer 3

OS:WindowMaterial:Glazing,
  {d1412fe8-7eae-4240-a0e7-627b16aa04a1}, !- Handle
  BRONZE 6MM,                             !- Name
  SpectralAverage,                        !- Optical Data Type
  ,                                       !- Window Glass Spectral Data Set Name
  0.006,                                  !- Thickness {m}
  0.482,                                  !- Solar Transmittance at Normal Incidence
  0.054,                                  !- Front Side Solar Reflectance at Normal Incidence
  0.054,                                  !- Back Side Solar Reflectance at Normal Incidence
  0.534,                                  !- Visible Transmittance at Normal Incidence
  0.057,                                  !- Front Side Visible Reflectance at Normal Incidence
  0.057,                                  !- Back Side Visible Reflectance at Normal Incidence
  0,                                      !- Infrared Transmittance at Normal Incidence
  0.84,                                   !- Front Side Infrared Hemispherical Emissivity
  0.84,                                   !- Back Side Infrared Hemispherical Emissivity
  0.9;                                    !- Conductivity {W/m-K}

OS:WindowMaterial:Gas,
  {4519ccce-c28f-4a2a-8a0a-ea223546e1ea}, !- Handle
  ARGON 13MM,                             !- Name
  Argon,                                  !- Gas Type
  0.0127;                                 !- Thickness {m}

OS:WindowMaterial:Glazing,
  {d1491c96-1af1-4435-b1b5-e74c29f8cac9}, !- Handle
  CLEAR 6MM,                              !- Name
  SpectralAverage,                        !- Optical Data Type
  ,                                       !- Window Glass Spectral Data Set Name
  0.006,                                  !- Thickness {m}
  0.775,                                  !- Solar Transmittance at Normal Incidence
  0.071,                                  !- Front Side Solar Reflectance at Normal Incidence
  0.071,                                  !- Back Side Solar Reflectance at Normal Incidence
  0.881,                                  !- Visible Transmittance at Normal Incidence
  0.08,                                   !- Front Side Visible Reflectance at Normal Incidence
  0.08,                                   !- Back Side Visible Reflectance at Normal Incidence
  0,                                      !- Infrared Transmittance at Normal Incidence
  0.84,                                   !- Front Side Infrared Hemispherical Emissivity
  0.84,                                   !- Back Side Infrared Hemispherical Emissivity
  0.9;                                    !- Conductivity {W/m-K}

