
! 
OS:Version,
  {9c37d538-db0d-4a47-9850-5bede7e76bd5}, !- Handle
  1.13.0;                                 !- Version Identifier


! {"nombreProductoCorto": "CLIMALIT PLUS con PLANITHERM PLANISTAR ONE F2 6 (16 argon90%) 4", "codigoEAN": "", "handle": "dc715ef7-bf62-444e-a312-37c4e3ede919", "g": 0.38, "tV": 0.72, "u": 1.0, "nombreProducto": "CLIMALIT PLUS con PLANITHERM PLANISTAR ONE F2 6 (16 argon90%) 4\nU:1.0 W/m2K - g:0.38 - Tv: 0.72"}
OS:WindowMaterial:SimpleGlazingSystem,
  {dc715ef7-bf62-444e-a312-37c4e3ede919}, !- Handle
  CLIMALIT PLUS con PLANITHERM PLANISTAR ONE F2 6 (16 argon90%) 4, !- Name
  1.0,                                    !- U-Factor {W/m2-K}
  0.38,                                    !- Solar Heat Gain Coefficient
  0.72;                                    !- Visible Transmittance     
  
  
OS:Construction,
  {4e3e13c4-c46f-429c-9970-e63b3b2469e3}, !- Handle
  CLIMALIT PLUS con PLANITHERM PLANISTAR ONE F2 6 (16 argon90%) 4,                         !- Name
  ,                                       !- Surface Rendering Name
  {dc715ef7-bf62-444e-a312-37c4e3ede919}; !- Layer 1  

