
OS:Version,
  {cc962ce7-ae10-4096-8a6d-1b42a73f168a}, ! Handle
  0.9.3;                                  ! Version Identifier

OS:Construction,
  {d50c423e-4aef-4213-aec1-0fb7f20db24b}, ! Handle
  90.1-2007 Res 2A Int Wall,              ! Name
  ,                                       ! Surface Rendering Name
  {fd61b8e3-b455-4e28-b9fc-3e2f46343c18}, ! Layer 1
  {fd61b8e3-b455-4e28-b9fc-3e2f46343c18}; ! Layer 2

OS:Material,
  {fd61b8e3-b455-4e28-b9fc-3e2f46343c18}, ! Handle
  GP01 1/2 GYPSUM,                        ! Name
  Smooth,                                 ! Roughness
  0.01271,                                ! Thickness {m}
  0.16,                                   ! Conductivity {W/m-K}
  800,                                    ! Density {kg/m3}
  1090,                                   ! Specific Heat {J/kg-K}
  0.9,                                    ! Thermal Absorptance
  0.7,                                    ! Solar Absorptance
  0.5;                                    ! Visible Absorptance

OS:ComponentCost:LineItem,
  {49cd8ee8-2408-4e5a-a90a-f53e6619ccf3}, ! Handle
  90.1-2007 Res 2A Int Wall,              ! Name
  ,                                       ! Type
  Construction,                           ! Line Item Type
  90.1-2007 Res 2A Int Wall,              ! Item Name
  ,                                       ! Object End Use Key
  ,                                       ! Quantity {dimensionless}
  0,                                      ! Material Cost {$}
  CostPerArea;                            ! Material Cost Units

OS:ComponentData,
  {3f0105a9-9599-471a-bf35-3571bc1069a7}, ! Handle
  Component Data 1,                       ! Name
  {726ed23d-3233-4587-9d5a-761d9509f655}, ! UUID
  {7d23800e-8f48-4ee3-88e8-7f9c96ccf0b3}, ! Version UUID
  1363981836,                             ! Creation Timestamp
  1363981836,                             ! Version Timestamp
  {d50c423e-4aef-4213-aec1-0fb7f20db24b}, ! Name of Object 1
  {fd61b8e3-b455-4e28-b9fc-3e2f46343c18}, ! Name of Object 2
  {49cd8ee8-2408-4e5a-a90a-f53e6619ccf3}; ! Name of Object 3

