
OS:Version,
  {ac4459fc-fcb9-4ffd-84b2-5490f25bef7b}, ! Handle
  0.9.3;                                  ! Version Identifier

OS:Material,
  {69cb377a-1e20-4614-8e7b-88194f2c69f1}, ! Handle
  GP01 1/2 GYPSUM,                        ! Name
  Smooth,                                 ! Roughness
  0.01271,                                ! Thickness {m}
  0.16,                                   ! Conductivity {W/m-K}
  800,                                    ! Density {kg/m3}
  1090,                                   ! Specific Heat {J/kg-K}
  0.9,                                    ! Thermal Absorptance
  0.7,                                    ! Solar Absorptance
  0.5;                                    ! Visible Absorptance

OS:Material,
  {2421f5d8-c17f-4bf3-a6e3-1d7d79fe4fc0}, ! Handle
  GP01 1/2 GYPSUM 1,                      ! Name
  Smooth,                                 ! Roughness
  0.01271,                                ! Thickness {m}
  0.16,                                   ! Conductivity {W/m-K}
  800,                                    ! Density {kg/m3}
  1090,                                   ! Specific Heat {J/kg-K}
  0.9,                                    ! Thermal Absorptance
  0.7,                                    ! Solar Absorptance
  0.5;                                    ! Visible Absorptance

OS:ComponentCost:LineItem,
  {48757a55-02ce-473a-a32b-8e46c7113e9b}, ! Handle
  90.1-2007 Res 2A Int Wall,              ! Name
  ,                                       ! Type
  Construction,                           ! Line Item Type
  90.1-2007 Res 2A Int Wall,              ! Item Name
  ,                                       ! Object End Use Key
  ,                                       ! Quantity {dimensionless}
  0,                                      ! Material Cost {$}
  CostPerArea;                            ! Material Cost Units

OS:Construction,
  {8d21a308-5fa0-4182-8900-249d778e3cf3}, ! Handle
  90.1-2007 Res 2A Int Wall,              ! Name
  ,                                       ! Surface Rendering Name
  {69cb377a-1e20-4614-8e7b-88194f2c69f1}, ! Layer 1
  {69cb377a-1e20-4614-8e7b-88194f2c69f1}; ! Layer 2

