
OS:Version,
  {06618953-a01e-47dc-b743-64dd4a9563d2}, ! Handle
  0.9.3;                                  ! Version Identifier

OS:Construction,
  {a8618fb9-8ac7-4176-b887-4571963e9ccc}, ! Handle
  AEDG-SmOffice 1A Roof Attic and Other,  ! Name
  ,                                       ! Surface Rendering Name
  {13abbcd4-3204-432a-b63e-3f862ddbbf9f}, ! Layer 1
  {b4b56679-32b2-40db-beb7-392ba26bb567}, ! Layer 2
  {3d2015b0-2f39-45bd-a38d-3795522aff56}, ! Layer 3
  {b97282aa-22ab-4bea-a53c-1a02cede0f6b}; ! Layer 4

OS:Material,
  {13abbcd4-3204-432a-b63e-3f862ddbbf9f}, ! Handle
  Wood Shingles,                          ! Name
  VeryRough,                              ! Roughness
  0.0178,                                 ! Thickness {m}
  0.115,                                  ! Conductivity {W/m-K}
  513,                                    ! Density {kg/m3}
  1255,                                   ! Specific Heat {J/kg-K}
  0.9,                                    ! Thermal Absorptance
  0.78,                                   ! Solar Absorptance
  0.78;                                   ! Visible Absorptance

OS:Material,
  {b4b56679-32b2-40db-beb7-392ba26bb567}, ! Handle
  1IN Wood Decking,                       ! Name
  MediumSmooth,                           ! Roughness
  0.0254,                                 ! Thickness {m}
  0.1211,                                 ! Conductivity {W/m-K}
  593,                                    ! Density {kg/m3}
  2510,                                   ! Specific Heat {J/kg-K}
  0.9,                                    ! Thermal Absorptance
  0.78,                                   ! Solar Absorptance
  0.78;                                   ! Visible Absorptance

OS:Material,
  {3d2015b0-2f39-45bd-a38d-3795522aff56}, ! Handle
  Roof Insulation [2],                    ! Name
  MediumRough,                            ! Roughness
  0.221604,                               ! Thickness {m}
  0.049,                                  ! Conductivity {W/m-K}
  265,                                    ! Density {kg/m3}
  836.8,                                  ! Specific Heat {J/kg-K}
  0.9,                                    ! Thermal Absorptance
  0.7,                                    ! Solar Absorptance
  0.7;                                    ! Visible Absorptance

OS:Material,
  {b97282aa-22ab-4bea-a53c-1a02cede0f6b}, ! Handle
  1/2IN Gypsum,                           ! Name
  Smooth,                                 ! Roughness
  0.01271,                                ! Thickness {m}
  0.16,                                   ! Conductivity {W/m-K}
  784.9,                                  ! Density {kg/m3}
  830,                                    ! Specific Heat {J/kg-K}
  0.9,                                    ! Thermal Absorptance
  0.92,                                   ! Solar Absorptance
  0.92;                                   ! Visible Absorptance

OS:ComponentCost:LineItem,
  {b5237993-1012-44c6-9446-0de54e339c3c}, ! Handle
  AEDG-SmOffice 1A Roof Attic and Other,  ! Name
  ,                                       ! Type
  Construction,                           ! Line Item Type
  AEDG-SmOffice 1A Roof Attic and Other,  ! Item Name
  ,                                       ! Object End Use Key
  ,                                       ! Quantity {dimensionless}
  33.39,                                  ! Material Cost {$}
  CostPerArea;                            ! Material Cost Units

OS:ComponentData,
  {729695d5-bf05-497d-9842-5df9bc413acb}, ! Handle
  Component Data 1,                       ! Name
  {f6e4e1cb-2296-4efc-bd3a-c2ce60b4256e}, ! UUID
  {e5d0e354-2f42-4f27-a662-71cec1fe41b8}, ! Version UUID
  1363981937,                             ! Creation Timestamp
  1363981937,                             ! Version Timestamp
  {a8618fb9-8ac7-4176-b887-4571963e9ccc}, ! Name of Object 1
  {13abbcd4-3204-432a-b63e-3f862ddbbf9f}, ! Name of Object 2
  {b4b56679-32b2-40db-beb7-392ba26bb567}, ! Name of Object 3
  {3d2015b0-2f39-45bd-a38d-3795522aff56}, ! Name of Object 4
  {b97282aa-22ab-4bea-a53c-1a02cede0f6b}, ! Name of Object 5
  {b5237993-1012-44c6-9446-0de54e339c3c}; ! Name of Object 6

