
OS:Version,
  {1edbbe9b-4812-4c63-9897-a580d9e96e84}, ! Handle
  0.9.3;                                  ! Version Identifier

OS:Material,
  {7ef0a04d-4777-4973-b9d8-41af867716c7}, ! Handle
  MAT-CC05 4 HW CONCRETE,                 ! Name
  Rough,                                  ! Roughness
  0.1016,                                 ! Thickness {m}
  1.311,                                  ! Conductivity {W/m-K}
  2240,                                   ! Density {kg/m3}
  836.8,                                  ! Specific Heat {J/kg-K}
  0.9,                                    ! Thermal Absorptance
  0.7,                                    ! Solar Absorptance
  0.7;                                    ! Visible Absorptance

OS:ComponentCost:LineItem,
  {5e632759-edb3-493b-8c60-f8308f16131a}, ! Handle
  189.1-2009 Nonres 1A Ext Slab Unheated - 4in Slab without Carpet, ! Name
  ,                                       ! Type
  Construction,                           ! Line Item Type
  189.1-2009 Nonres 1A Ext Slab Unheated - 4in Slab without Carpet, ! Item Name
  ,                                       ! Object End Use Key
  ,                                       ! Quantity {dimensionless}
  45.52,                                  ! Material Cost {$}
  CostPerArea;                            ! Material Cost Units

OS:Construction,
  {6e06f181-d285-4aaf-a62d-8f1ed3d22b48}, ! Handle
  189.1-2009 Nonres 1A Ext Slab Unheated - 4in Slab without Carpet, ! Name
  ,                                       ! Surface Rendering Name
  {7ef0a04d-4777-4973-b9d8-41af867716c7}; ! Layer 1

