
OS:Version,
  {c2745820-b570-4a92-a11f-b46080a32523}, ! Handle
  0.9.3;                                  ! Version Identifier

OS:Material,
  {9729d6f3-14ba-4d02-8e95-3d5ed855ddd1}, ! Handle
  Wood Shingles,                          ! Name
  VeryRough,                              ! Roughness
  0.0178,                                 ! Thickness {m}
  0.115,                                  ! Conductivity {W/m-K}
  513,                                    ! Density {kg/m3}
  1255,                                   ! Specific Heat {J/kg-K}
  0.9,                                    ! Thermal Absorptance
  0.78,                                   ! Solar Absorptance
  0.78;                                   ! Visible Absorptance

OS:Material,
  {34c42ffc-7623-42e0-bab3-e33fac5da88a}, ! Handle
  Roof Insulation [2],                    ! Name
  MediumRough,                            ! Roughness
  0.221604,                               ! Thickness {m}
  0.049,                                  ! Conductivity {W/m-K}
  265,                                    ! Density {kg/m3}
  836.8,                                  ! Specific Heat {J/kg-K}
  0.9,                                    ! Thermal Absorptance
  0.7,                                    ! Solar Absorptance
  0.7;                                    ! Visible Absorptance

OS:Material,
  {49e06bb6-51ef-45d6-be0e-abcbb16272fc}, ! Handle
  1IN Wood Decking,                       ! Name
  MediumSmooth,                           ! Roughness
  0.0254,                                 ! Thickness {m}
  0.1211,                                 ! Conductivity {W/m-K}
  593,                                    ! Density {kg/m3}
  2510,                                   ! Specific Heat {J/kg-K}
  0.9,                                    ! Thermal Absorptance
  0.78,                                   ! Solar Absorptance
  0.78;                                   ! Visible Absorptance

OS:Construction,
  {4965a720-123d-4c12-a74d-7b47f035cfd3}, ! Handle
  90.1-1999 Nonres B4 Roof Attic and Other, ! Name
  ,                                       ! Surface Rendering Name
  {9729d6f3-14ba-4d02-8e95-3d5ed855ddd1}, ! Layer 1
  {49e06bb6-51ef-45d6-be0e-abcbb16272fc}, ! Layer 2
  {34c42ffc-7623-42e0-bab3-e33fac5da88a}, ! Layer 3
  {6316242c-7f3b-4fdc-9251-244f0706426a}; ! Layer 4

OS:Material,
  {6316242c-7f3b-4fdc-9251-244f0706426a}, ! Handle
  1/2IN Gypsum,                           ! Name
  Smooth,                                 ! Roughness
  0.01271,                                ! Thickness {m}
  0.16,                                   ! Conductivity {W/m-K}
  784.9,                                  ! Density {kg/m3}
  830,                                    ! Specific Heat {J/kg-K}
  0.9,                                    ! Thermal Absorptance
  0.92,                                   ! Solar Absorptance
  0.92;                                   ! Visible Absorptance

OS:ComponentCost:LineItem,
  {2288d73a-9856-4f83-b43b-7bef2fd6f8c8}, ! Handle
  90.1-1999 Nonres B4 Roof Attic and Other, ! Name
  ,                                       ! Type
  Construction,                           ! Line Item Type
  90.1-1999 Nonres B4 Roof Attic and Other, ! Item Name
  ,                                       ! Object End Use Key
  ,                                       ! Quantity {dimensionless}
  33.39,                                  ! Material Cost {$}
  CostPerArea;                            ! Material Cost Units

