
! 
OS:Version,
  {9c37d538-db0d-4a47-9850-5bede7e76bd5}, !- Handle
  1.13.0;                                 !- Version Identifier


! {"nombreProductoCorto": "CLIMALIT PLUS con PLANISTAR ONE F2 XN F5 6(14 argon90%) 4 (14 argon90%) 4", "codigoEAN": "", "handle": "0fdd1c69-7622-472d-8eb0-950f625691f0", "g": 0.33, "tV": 0.49, "u": 0.6, "nombreProducto": "CLIMALIT PLUS con PLANISTAR ONE F2 XN F5 6(14 argon90%) 4 (14 argon90%) 4\nU:0.6 W/m2K - g:0.33 - Tv: 0.49"}
OS:WindowMaterial:SimpleGlazingSystem,
  {0fdd1c69-7622-472d-8eb0-950f625691f0}, !- Handle
  CLIMALIT PLUS con PLANISTAR ONE F2 XN F5 6(14 argon90%) 4 (14 argon90%) 4, !- Name
  0.6,                                    !- U-Factor {W/m2-K}
  0.33,                                    !- Solar Heat Gain Coefficient
  0.49;                                    !- Visible Transmittance     
  
  
OS:Construction,
  {ab0ef06f-5693-479b-b71b-b81777ec9615}, !- Handle
  CLIMALIT PLUS con PLANISTAR ONE F2 XN F5 6(14 argon90%) 4 (14 argon90%) 4,                         !- Name
  ,                                       !- Surface Rendering Name
  {0fdd1c69-7622-472d-8eb0-950f625691f0}; !- Layer 1  

