
OS:Version,
  {44b4dce5-2b3e-42ed-aee9-a98edd902bca}, ! Handle
  0.9.3;                                  ! Version Identifier

OS:Material,
  {96f40518-20fc-451a-bf8e-48f51896cd68}, ! Handle
  1/2IN Gypsum Top,                       ! Name
  Smooth,                                 ! Roughness
  0.01271,                                ! Thickness {m}
  0.16,                                   ! Conductivity {W/m-K}
  784.9,                                  ! Density {kg/m3}
  830,                                    ! Specific Heat {J/kg-K}
  0.9,                                    ! Thermal Absorptance
  0.92,                                   ! Solar Absorptance
  0.92;                                   ! Visible Absorptance

OS:Material,
  {c2e6ab53-f9e7-4cc2-98fa-e8dc04ba74ff}, ! Handle
  AtticFloor Insulation [48],             ! Name
  MediumRough,                            ! Roughness
  0.160449,                               ! Thickness {m}
  0.049,                                  ! Conductivity {W/m-K}
  265,                                    ! Density {kg/m3}
  836.8,                                  ! Specific Heat {J/kg-K}
  0.9,                                    ! Thermal Absorptance
  0.7,                                    ! Solar Absorptance
  0.7;                                    ! Visible Absorptance

OS:Material,
  {3ff587a0-c942-4591-90ea-28d3b489f4c3}, ! Handle
  1/2IN Gypsum Bottom,                    ! Name
  Smooth,                                 ! Roughness
  0.01271,                                ! Thickness {m}
  0.16,                                   ! Conductivity {W/m-K}
  784.9,                                  ! Density {kg/m3}
  830,                                    ! Specific Heat {J/kg-K}
  0.9,                                    ! Thermal Absorptance
  0.92,                                   ! Solar Absorptance
  0.92;                                   ! Visible Absorptance

OS:ComponentCost:LineItem,
  {5da398a8-910c-4e95-8e40-e985eb176c39}, ! Handle
  Title 24-2008 Nonres 1 Attic Floor,     ! Name
  ,                                       ! Type
  Construction,                           ! Line Item Type
  Title 24-2008 Nonres 1 Attic Floor,     ! Item Name
  ,                                       ! Object End Use Key
  ,                                       ! Quantity {dimensionless}
  32.378,                                 ! Material Cost {$}
  CostPerArea;                            ! Material Cost Units

OS:Construction,
  {c8e561f5-6585-48c0-b8f8-4d4868c67d6b}, ! Handle
  Title 24-2008 Nonres 1 Attic Floor,     ! Name
  ,                                       ! Surface Rendering Name
  {96f40518-20fc-451a-bf8e-48f51896cd68}, ! Layer 1
  {c2e6ab53-f9e7-4cc2-98fa-e8dc04ba74ff}, ! Layer 2
  {3ff587a0-c942-4591-90ea-28d3b489f4c3}; ! Layer 3

