
OS:Version,
  {604005d3-5379-4d87-97e2-f48a21ed8625}, ! Handle
  0.9.3;                                  ! Version Identifier

OS:Construction,
  {905bb653-1e85-4a06-97ca-b2f9e12512c1}, ! Handle
  AEDG K12 Nonres 5B Ext Wall Mass,       ! Name
  ,                                       ! Surface Rendering Name
  {2357270b-52bb-4b9b-929f-d97deb4b66ca}, ! Layer 1
  {ce40c776-28e5-4e4f-b7ae-96c4524b3afc}, ! Layer 2
  {76494d8d-c33c-484e-8487-a0511ac2d9ed}; ! Layer 3

OS:Material,
  {2357270b-52bb-4b9b-929f-d97deb4b66ca}, ! Handle
  MAT-CC05 3.5 HW CONCRETE,               ! Name
  Rough,                                  ! Roughness
  0.0889,                                 ! Thickness {m}
  1.311,                                  ! Conductivity {W/m-K}
  2240,                                   ! Density {kg/m3}
  836.8,                                  ! Specific Heat {J/kg-K}
  0.9,                                    ! Thermal Absorptance
  0.7,                                    ! Solar Absorptance
  0.7;                                    ! Visible Absorptance

OS:Material,
  {ce40c776-28e5-4e4f-b7ae-96c4524b3afc}, ! Handle
  Wall Insulation [69],                   ! Name
  MediumRough,                            ! Roughness
  0.0491319,                              ! Thickness {m}
  0.0432,                                 ! Conductivity {W/m-K}
  91,                                     ! Density {kg/m3}
  837,                                    ! Specific Heat {J/kg-K}
  0.9,                                    ! Thermal Absorptance
  0.5,                                    ! Solar Absorptance
  0.5;                                    ! Visible Absorptance

OS:Material,
  {76494d8d-c33c-484e-8487-a0511ac2d9ed}, ! Handle
  MAT-CC05 4 HW CONCRETE,                 ! Name
  Rough,                                  ! Roughness
  0.1016,                                 ! Thickness {m}
  1.311,                                  ! Conductivity {W/m-K}
  2240,                                   ! Density {kg/m3}
  836.8,                                  ! Specific Heat {J/kg-K}
  0.9,                                    ! Thermal Absorptance
  0.7,                                    ! Solar Absorptance
  0.7;                                    ! Visible Absorptance

OS:ComponentCost:LineItem,
  {4f45999e-51cc-47df-94d9-2e16b5dff469}, ! Handle
  AEDG K12 Nonres 5B Ext Wall Mass,       ! Name
  ,                                       ! Type
  Construction,                           ! Line Item Type
  AEDG K12 Nonres 5B Ext Wall Mass,       ! Item Name
  ,                                       ! Object End Use Key
  ,                                       ! Quantity {dimensionless}
  227.44,                                 ! Material Cost {$}
  CostPerArea;                            ! Material Cost Units

OS:ComponentData,
  {466d03b3-fd3d-43c1-a2e6-d8c77621db27}, ! Handle
  Component Data 1,                       ! Name
  {bb9f3c90-9ae6-4ee5-8e16-b6b5595c246f}, ! UUID
  {aefddf1f-203a-4316-bff1-3188a9050aa1}, ! Version UUID
  1363981896,                             ! Creation Timestamp
  1363981896,                             ! Version Timestamp
  {905bb653-1e85-4a06-97ca-b2f9e12512c1}, ! Name of Object 1
  {2357270b-52bb-4b9b-929f-d97deb4b66ca}, ! Name of Object 2
  {ce40c776-28e5-4e4f-b7ae-96c4524b3afc}, ! Name of Object 3
  {76494d8d-c33c-484e-8487-a0511ac2d9ed}, ! Name of Object 4
  {4f45999e-51cc-47df-94d9-2e16b5dff469}; ! Name of Object 5

