
OS:Version,
  {b69c7005-49c7-40f5-b969-d9aa15e8f04d}, ! Handle
  0.9.3;                                  ! Version Identifier

OS:WindowMaterial:Glazing,
  {b2f59fd7-36e8-4838-8fb5-ff7451613487}, ! Handle
  Theoretical Glass [117],                ! Name
  SpectralAverage,                        ! Optical Data Type
  ,                                       ! Window Glass Spectral Data Set Name
  0.003,                                  ! Thickness {m}
  0.470834,                               ! Solar Transmittance at Normal Incidence
  0.479166,                               ! Front Side Solar Reflectance at Normal Incidence
  0.479166,                               ! Back Side Solar Reflectance at Normal Incidence
  0.529698,                               ! Visible Transmittance at Normal Incidence
  0.420302,                               ! Front Side Visible Reflectance at Normal Incidence
  0.420302,                               ! Back Side Visible Reflectance at Normal Incidence
  0,                                      ! Infrared Transmittance at Normal Incidence
  0.9,                                    ! Front Side Infrared Hemispherical Emissivity
  0.9,                                    ! Back Side Infrared Hemispherical Emissivity
  0.0192257;                              ! Conductivity {W/m-K}

OS:Construction,
  {299f5316-63b2-4200-9ee8-e9bfe076d09c}, ! Handle
  90.1-2001 Res B26 Skylight without Curb, ! Name
  ,                                       ! Surface Rendering Name
  {b2f59fd7-36e8-4838-8fb5-ff7451613487}; ! Layer 1

