
! 
OS:Version,
  {8503bb35-3288-4176-9c41-752f3d976c4b}, !- Handle
  1.13.0;                                 !- Version Identifier


! 
OS:Material,
  {fae80d46-7032-4e84-b479-5d86fdda00df}, !- Handle
  Aislamiento: SATE
WEBER: weber.therm placa EPS 150 (0.150 m)
R: 4.1 m2K/W,                             !- Name
  MediumRough,                                 !- Roughness
  0.15,                                    !- Thickness {m}
  0.037,                                    !- Conductivity {W/m-K}
  15.0,                                    !- Density {kg/m3}
  800.0,                                    !- Specific Heat {J/kg-K}
  0.9,                                    !- Thermal Absorptance
  0.6,                                    !- Solar Absorptance
  0.6;                                    !- Visible Absorptance

