
OS:Version,
  {b76271fd-f884-4280-826f-abb215fa1638}, ! Handle
  0.9.3;                                  ! Version Identifier

OS:WindowMaterial:Glazing,
  {316b4f29-6c79-4ac4-8040-bed924fd84ca}, ! Handle
  Theoretical Glass [378],                ! Name
  SpectralAverage,                        ! Optical Data Type
  ,                                       ! Window Glass Spectral Data Set Name
  0.003,                                  ! Thickness {m}
  0.387278,                               ! Solar Transmittance at Normal Incidence
  0.562722,                               ! Front Side Solar Reflectance at Normal Incidence
  0.562722,                               ! Back Side Solar Reflectance at Normal Incidence
  0.549983,                               ! Visible Transmittance at Normal Incidence
  0.400017,                               ! Front Side Visible Reflectance at Normal Incidence
  0.400017,                               ! Back Side Visible Reflectance at Normal Incidence
  0,                                      ! Infrared Transmittance at Normal Incidence
  0.9,                                    ! Front Side Infrared Hemispherical Emissivity
  0.9,                                    ! Back Side Infrared Hemispherical Emissivity
  0.00557792;                             ! Conductivity {W/m-K}

OS:ComponentCost:LineItem,
  {367d0e11-536a-4a33-98f3-0d2c237cae1b}, ! Handle
  90.1 Windows Window Fixed 3671 Vnl-Clr-Ins-V79-Ins-Clr, ! Name
  ,                                       ! Type
  Construction,                           ! Line Item Type
  90.1 Windows Window Fixed 3671 Vnl-Clr-Ins-V79-Ins-Clr, ! Item Name
  ,                                       ! Object End Use Key
  ,                                       ! Quantity {dimensionless}
  0,                                      ! Material Cost {$}
  CostPerArea;                            ! Material Cost Units

OS:Construction,
  {da5088db-5be1-41ed-bddf-3e909af979ae}, ! Handle
  90.1 Windows Window Fixed 3671 Vnl-Clr-Ins-V79-Ins-Clr, ! Name
  ,                                       ! Surface Rendering Name
  {316b4f29-6c79-4ac4-8040-bed924fd84ca}; ! Layer 1

