
OS:Version,
  {ee66fc3c-bbc9-4b36-ac45-54d4582450ec}, ! Handle
  0.9.3;                                  ! Version Identifier

OS:Construction,
  {22bf6ac0-db5e-4ddf-b2b7-656755718a72}, ! Handle
  90.1 Constructions Roof Attic and Other R-30.0, ! Name
  ,                                       ! Surface Rendering Name
  {da00a869-7a0a-4f29-9c21-1fe7ec46d998}, ! Layer 1
  {0da3a1bc-5961-4660-8c9c-6b750dd81932}, ! Layer 2
  {d4ecf6ab-b4f2-4432-b133-81f4d9614846}, ! Layer 3
  {97692c40-9756-43ce-acee-129bbec4b426}; ! Layer 4

OS:Material,
  {da00a869-7a0a-4f29-9c21-1fe7ec46d998}, ! Handle
  Wood Shingles,                          ! Name
  VeryRough,                              ! Roughness
  0.0178,                                 ! Thickness {m}
  0.115,                                  ! Conductivity {W/m-K}
  513,                                    ! Density {kg/m3}
  1255,                                   ! Specific Heat {J/kg-K}
  0.9,                                    ! Thermal Absorptance
  0.78,                                   ! Solar Absorptance
  0.78;                                   ! Visible Absorptance

OS:Material,
  {0da3a1bc-5961-4660-8c9c-6b750dd81932}, ! Handle
  1IN Wood Decking,                       ! Name
  MediumSmooth,                           ! Roughness
  0.0254,                                 ! Thickness {m}
  0.1211,                                 ! Conductivity {W/m-K}
  593,                                    ! Density {kg/m3}
  2510,                                   ! Specific Heat {J/kg-K}
  0.9,                                    ! Thermal Absorptance
  0.78,                                   ! Solar Absorptance
  0.78;                                   ! Visible Absorptance

OS:Material,
  {d4ecf6ab-b4f2-4432-b133-81f4d9614846}, ! Handle
  Roof Insulation [74],                   ! Name
  MediumRough,                            ! Roughness
  0.223487,                               ! Thickness {m}
  0.049,                                  ! Conductivity {W/m-K}
  265,                                    ! Density {kg/m3}
  836.8,                                  ! Specific Heat {J/kg-K}
  0.9,                                    ! Thermal Absorptance
  0.7,                                    ! Solar Absorptance
  0.7;                                    ! Visible Absorptance

OS:Material,
  {97692c40-9756-43ce-acee-129bbec4b426}, ! Handle
  1/2IN Gypsum,                           ! Name
  Smooth,                                 ! Roughness
  0.01271,                                ! Thickness {m}
  0.16,                                   ! Conductivity {W/m-K}
  784.9,                                  ! Density {kg/m3}
  830,                                    ! Specific Heat {J/kg-K}
  0.9,                                    ! Thermal Absorptance
  0.92,                                   ! Solar Absorptance
  0.92;                                   ! Visible Absorptance

OS:ComponentCost:LineItem,
  {33d3d882-8194-4001-8a8b-135ba494f0c3}, ! Handle
  90.1 Constructions Roof Attic and Other R-30.0, ! Name
  ,                                       ! Type
  Construction,                           ! Line Item Type
  90.1 Constructions Roof Attic and Other R-30.0, ! Item Name
  ,                                       ! Object End Use Key
  ,                                       ! Quantity {dimensionless}
  33.409,                                 ! Material Cost {$}
  CostPerArea;                            ! Material Cost Units

OS:ComponentData,
  {aa1c8208-d66e-4318-83ea-c8e74b7dc09b}, ! Handle
  Component Data 1,                       ! Name
  {0a8046a5-457d-471b-97d1-49017ec4e807}, ! UUID
  {883c437e-20ad-4f8d-9f30-e9aece474ab3}, ! Version UUID
  1363980998,                             ! Creation Timestamp
  1363980998,                             ! Version Timestamp
  {22bf6ac0-db5e-4ddf-b2b7-656755718a72}, ! Name of Object 1
  {da00a869-7a0a-4f29-9c21-1fe7ec46d998}, ! Name of Object 2
  {0da3a1bc-5961-4660-8c9c-6b750dd81932}, ! Name of Object 3
  {d4ecf6ab-b4f2-4432-b133-81f4d9614846}, ! Name of Object 4
  {97692c40-9756-43ce-acee-129bbec4b426}, ! Name of Object 5
  {33d3d882-8194-4001-8a8b-135ba494f0c3}; ! Name of Object 6

