
OS:Version,
  {1a2b59da-4cf4-4506-915b-80a32d5dc672}, ! Handle
  0.9.3;                                  ! Version Identifier

OS:Construction,
  {de6f4ecf-0660-4ae9-b455-110e85f031b1}, ! Handle
  90.1-2001 Res B21 Ext Wall Mass,        ! Name
  ,                                       ! Surface Rendering Name
  {2c9d5237-47c4-4c5b-b35e-85bfd5525eb1}, ! Layer 1
  {b2594cab-0c15-4134-b8b4-a1f52a4a0434}, ! Layer 2
  {7d6eb04f-dfae-449a-88dc-ed9ba182e2d5}, ! Layer 3
  {88d93ac5-8763-4841-948c-47f1856af5a5}; ! Layer 4

OS:Material,
  {2c9d5237-47c4-4c5b-b35e-85bfd5525eb1}, ! Handle
  1IN Stucco,                             ! Name
  Smooth,                                 ! Roughness
  0.0253,                                 ! Thickness {m}
  0.6918,                                 ! Conductivity {W/m-K}
  1858,                                   ! Density {kg/m3}
  837,                                    ! Specific Heat {J/kg-K}
  0.9,                                    ! Thermal Absorptance
  0.92,                                   ! Solar Absorptance
  0.92;                                   ! Visible Absorptance

OS:Material,
  {b2594cab-0c15-4134-b8b4-a1f52a4a0434}, ! Handle
  8IN Concrete HW,                        ! Name
  MediumRough,                            ! Roughness
  0.2033,                                 ! Thickness {m}
  1.7296,                                 ! Conductivity {W/m-K}
  2243,                                   ! Density {kg/m3}
  837,                                    ! Specific Heat {J/kg-K}
  0.9,                                    ! Thermal Absorptance
  0.65,                                   ! Solar Absorptance
  0.65;                                   ! Visible Absorptance

OS:Material,
  {7d6eb04f-dfae-449a-88dc-ed9ba182e2d5}, ! Handle
  Wall Insulation [14],                   ! Name
  MediumRough,                            ! Roughness
  0.0905233,                              ! Thickness {m}
  0.0432,                                 ! Conductivity {W/m-K}
  91,                                     ! Density {kg/m3}
  837,                                    ! Specific Heat {J/kg-K}
  0.9,                                    ! Thermal Absorptance
  0.5,                                    ! Solar Absorptance
  0.5;                                    ! Visible Absorptance

OS:Material,
  {88d93ac5-8763-4841-948c-47f1856af5a5}, ! Handle
  1/2IN Gypsum,                           ! Name
  Smooth,                                 ! Roughness
  0.01271,                                ! Thickness {m}
  0.16,                                   ! Conductivity {W/m-K}
  784.9,                                  ! Density {kg/m3}
  830,                                    ! Specific Heat {J/kg-K}
  0.9,                                    ! Thermal Absorptance
  0.92,                                   ! Solar Absorptance
  0.92;                                   ! Visible Absorptance

OS:ComponentCost:LineItem,
  {fd5b747a-de74-4270-b088-09f4d7cf8ced}, ! Handle
  90.1-2001 Res B21 Ext Wall Mass,        ! Name
  ,                                       ! Type
  Construction,                           ! Line Item Type
  90.1-2001 Res B21 Ext Wall Mass,        ! Item Name
  ,                                       ! Object End Use Key
  ,                                       ! Quantity {dimensionless}
  70.253,                                 ! Material Cost {$}
  CostPerArea;                            ! Material Cost Units

OS:ComponentData,
  {d0b5958e-7bce-4d50-bd2f-4ab81eb0bd0b}, ! Handle
  Component Data 1,                       ! Name
  {22fd0762-0cc1-4500-92d9-d894efb4ef89}, ! UUID
  {de5f7e78-fcd2-48a3-9bde-89e2cf788b4a}, ! Version UUID
  1363981581,                             ! Creation Timestamp
  1363981581,                             ! Version Timestamp
  {de6f4ecf-0660-4ae9-b455-110e85f031b1}, ! Name of Object 1
  {2c9d5237-47c4-4c5b-b35e-85bfd5525eb1}, ! Name of Object 2
  {b2594cab-0c15-4134-b8b4-a1f52a4a0434}, ! Name of Object 3
  {7d6eb04f-dfae-449a-88dc-ed9ba182e2d5}, ! Name of Object 4
  {88d93ac5-8763-4841-948c-47f1856af5a5}, ! Name of Object 5
  {fd5b747a-de74-4270-b088-09f4d7cf8ced}; ! Name of Object 6

