
OS:Version,
  {c8f4ecc0-7bbf-4089-94ef-c420638caec4}, ! Handle
  0.9.3;                                  ! Version Identifier

OS:ComponentCost:LineItem,
  {8053551d-cc06-492a-9c2a-b2a0ed5ba472}, ! Handle
  90.1-2001 Res B21 Ext Wall Mass,        ! Name
  ,                                       ! Type
  Construction,                           ! Line Item Type
  90.1-2001 Res B21 Ext Wall Mass,        ! Item Name
  ,                                       ! Object End Use Key
  ,                                       ! Quantity {dimensionless}
  70.253,                                 ! Material Cost {$}
  CostPerArea;                            ! Material Cost Units

OS:Material,
  {a66fa675-1ef0-40ae-b035-2f59f211b6f8}, ! Handle
  1IN Stucco,                             ! Name
  Smooth,                                 ! Roughness
  0.0253,                                 ! Thickness {m}
  0.6918,                                 ! Conductivity {W/m-K}
  1858,                                   ! Density {kg/m3}
  837,                                    ! Specific Heat {J/kg-K}
  0.9,                                    ! Thermal Absorptance
  0.92,                                   ! Solar Absorptance
  0.92;                                   ! Visible Absorptance

OS:Material,
  {a1543c3e-f503-4431-9987-8921dd758968}, ! Handle
  1/2IN Gypsum,                           ! Name
  Smooth,                                 ! Roughness
  0.01271,                                ! Thickness {m}
  0.16,                                   ! Conductivity {W/m-K}
  784.9,                                  ! Density {kg/m3}
  830,                                    ! Specific Heat {J/kg-K}
  0.9,                                    ! Thermal Absorptance
  0.92,                                   ! Solar Absorptance
  0.92;                                   ! Visible Absorptance

OS:Material,
  {260d6a90-52b9-4f37-a6b2-e662aa9cbc06}, ! Handle
  Wall Insulation [14],                   ! Name
  MediumRough,                            ! Roughness
  0.0905233,                              ! Thickness {m}
  0.0432,                                 ! Conductivity {W/m-K}
  91,                                     ! Density {kg/m3}
  837,                                    ! Specific Heat {J/kg-K}
  0.9,                                    ! Thermal Absorptance
  0.5,                                    ! Solar Absorptance
  0.5;                                    ! Visible Absorptance

OS:Construction,
  {edaeae61-aa18-47c9-8321-8c44dbe74a4d}, ! Handle
  90.1-2001 Res B21 Ext Wall Mass,        ! Name
  ,                                       ! Surface Rendering Name
  {a66fa675-1ef0-40ae-b035-2f59f211b6f8}, ! Layer 1
  {cf136046-d0a4-4e6c-b926-9c9b9f25d303}, ! Layer 2
  {260d6a90-52b9-4f37-a6b2-e662aa9cbc06}, ! Layer 3
  {a1543c3e-f503-4431-9987-8921dd758968}; ! Layer 4

OS:Material,
  {cf136046-d0a4-4e6c-b926-9c9b9f25d303}, ! Handle
  8IN Concrete HW,                        ! Name
  MediumRough,                            ! Roughness
  0.2033,                                 ! Thickness {m}
  1.7296,                                 ! Conductivity {W/m-K}
  2243,                                   ! Density {kg/m3}
  837,                                    ! Specific Heat {J/kg-K}
  0.9,                                    ! Thermal Absorptance
  0.65,                                   ! Solar Absorptance
  0.65;                                   ! Visible Absorptance

