
OS:Version,
  {35c68a70-c747-4a81-be7a-2cf04eb8d8f8}, ! Handle
  0.9.3;                                  ! Version Identifier

OS:Construction,
  {8d8fc174-8377-4486-96e2-4516835dffa0}, ! Handle
  90.1-2001 Res B2 Ext Slab Unheated - 8in Slab with Carpet, ! Name
  ,                                       ! Surface Rendering Name
  {70f1ed04-f470-4e81-be45-b60c2cae05df}, ! Layer 1
  {360b429b-2250-48e8-b1e4-248a7c7ecffe}; ! Layer 2

OS:Material,
  {70f1ed04-f470-4e81-be45-b60c2cae05df}, ! Handle
  MAT-CC05 8 HW CONCRETE,                 ! Name
  Rough,                                  ! Roughness
  0.20321,                                ! Thickness {m}
  1.311,                                  ! Conductivity {W/m-K}
  2240,                                   ! Density {kg/m3}
  836.8,                                  ! Specific Heat {J/kg-K}
  0.9,                                    ! Thermal Absorptance
  0.7,                                    ! Solar Absorptance
  0.7;                                    ! Visible Absorptance

OS:Material:NoMass,
  {360b429b-2250-48e8-b1e4-248a7c7ecffe}, ! Handle
  CP02 CARPET PAD,                        ! Name
  VeryRough,                              ! Roughness
  0.21648,                                ! Thermal Resistance {m2-K/W}
  0.9,                                    ! Thermal Absorptance
  0.7,                                    ! Solar Absorptance
  0.8;                                    ! Visible Absorptance

OS:ComponentCost:LineItem,
  {a5975d86-ae31-4990-88e9-9c9b4c3c6550}, ! Handle
  90.1-2001 Res B2 Ext Slab Unheated - 8in Slab with Carpet, ! Name
  ,                                       ! Type
  Construction,                           ! Line Item Type
  90.1-2001 Res B2 Ext Slab Unheated - 8in Slab with Carpet, ! Item Name
  ,                                       ! Object End Use Key
  ,                                       ! Quantity {dimensionless}
  45.52,                                  ! Material Cost {$}
  CostPerArea;                            ! Material Cost Units

