
OS:Version,
  {752e5966-d901-4a87-90e7-407d929696eb}, !- Handle
  1.1.0;                                  !- Version Identifier

OS:Construction,
  {9b81a7f0-a3c0-4e5c-b04d-71e3f4f8a604}, !- Handle
  Dbl Grey 3mm/13mm Air,                  !- Name
  ,                                       !- Surface Rendering Name
  {0ec13276-817c-460c-9332-f316a7f19c9d}, !- Layer 1
  {75400296-f700-4fce-a683-3fe4b28972c2}, !- Layer 2
  {4a29acba-fde6-4baa-9a04-41eb372e523b}; !- Layer 3

OS:WindowMaterial:Glazing,
  {0ec13276-817c-460c-9332-f316a7f19c9d}, !- Handle
  GREY 3MM,                               !- Name
  SpectralAverage,                        !- Optical Data Type
  ,                                       !- Window Glass Spectral Data Set Name
  0.003,                                  !- Thickness {m}
  0.626,                                  !- Solar Transmittance at Normal Incidence
  0.061,                                  !- Front Side Solar Reflectance at Normal Incidence
  0.061,                                  !- Back Side Solar Reflectance at Normal Incidence
  0.611,                                  !- Visible Transmittance at Normal Incidence
  0.061,                                  !- Front Side Visible Reflectance at Normal Incidence
  0.061,                                  !- Back Side Visible Reflectance at Normal Incidence
  0,                                      !- Infrared Transmittance at Normal Incidence
  0.84,                                   !- Front Side Infrared Hemispherical Emissivity
  0.84,                                   !- Back Side Infrared Hemispherical Emissivity
  0.9;                                    !- Conductivity {W/m-K}

OS:WindowMaterial:Gas,
  {75400296-f700-4fce-a683-3fe4b28972c2}, !- Handle
  AIR 13MM,                               !- Name
  Air,                                    !- Gas Type
  0.0127;                                 !- Thickness {m}

OS:WindowMaterial:Glazing,
  {4a29acba-fde6-4baa-9a04-41eb372e523b}, !- Handle
  CLEAR 3MM,                              !- Name
  SpectralAverage,                        !- Optical Data Type
  ,                                       !- Window Glass Spectral Data Set Name
  0.003,                                  !- Thickness {m}
  0.837,                                  !- Solar Transmittance at Normal Incidence
  0.075,                                  !- Front Side Solar Reflectance at Normal Incidence
  0.075,                                  !- Back Side Solar Reflectance at Normal Incidence
  0.898,                                  !- Visible Transmittance at Normal Incidence
  0.081,                                  !- Front Side Visible Reflectance at Normal Incidence
  0.081,                                  !- Back Side Visible Reflectance at Normal Incidence
  0,                                      !- Infrared Transmittance at Normal Incidence
  0.84,                                   !- Front Side Infrared Hemispherical Emissivity
  0.84,                                   !- Back Side Infrared Hemispherical Emissivity
  0.9;                                    !- Conductivity {W/m-K}

