
OS:Version,
  {514052dc-f8b6-4c98-a132-c3f22e3092e4}, ! Handle
  0.9.3;                                  ! Version Identifier

OS:WindowMaterial:Glazing,
  {7ec87407-5015-4677-8d14-c4b8086b9f5f}, ! Handle
  Theoretical Glass [552],                ! Name
  SpectralAverage,                        ! Optical Data Type
  ,                                       ! Window Glass Spectral Data Set Name
  0.003,                                  ! Thickness {m}
  0.17735,                                ! Solar Transmittance at Normal Incidence
  0.77265,                                ! Front Side Solar Reflectance at Normal Incidence
  0.77265,                                ! Back Side Solar Reflectance at Normal Incidence
  0.301356,                               ! Visible Transmittance at Normal Incidence
  0.648644,                               ! Front Side Visible Reflectance at Normal Incidence
  0.648644,                               ! Back Side Visible Reflectance at Normal Incidence
  0,                                      ! Infrared Transmittance at Normal Incidence
  0.9,                                    ! Front Side Infrared Hemispherical Emissivity
  0.9,                                    ! Back Side Infrared Hemispherical Emissivity
  0.00776617;                             ! Conductivity {W/m-K}

OS:Construction,
  {b5379ad3-3ec3-4aea-b6a7-2cd29e249814}, ! Handle
  90.1 Windows Window Fixed 2645 Vnl-GrnMpr-Ins-ClrSue, ! Name
  ,                                       ! Surface Rendering Name
  {7ec87407-5015-4677-8d14-c4b8086b9f5f}; ! Layer 1

OS:ComponentCost:LineItem,
  {56ba8869-8476-4da9-a76f-6a58072afeec}, ! Handle
  90.1 Windows Window Fixed 2645 Vnl-GrnMpr-Ins-ClrSue, ! Name
  ,                                       ! Type
  Construction,                           ! Line Item Type
  90.1 Windows Window Fixed 2645 Vnl-GrnMpr-Ins-ClrSue, ! Item Name
  ,                                       ! Object End Use Key
  ,                                       ! Quantity {dimensionless}
  0,                                      ! Material Cost {$}
  CostPerArea;                            ! Material Cost Units

