
OS:Version,
  {8d41793e-587c-466a-bac2-ee5b6dab68b2}, ! Handle
  0.9.3;                                  ! Version Identifier

OS:Material,
  {6266d566-73d0-43b5-ba1a-5ffee897fff1}, ! Handle
  1/2IN Gypsum,                           ! Name
  Smooth,                                 ! Roughness
  0.01271,                                ! Thickness {m}
  0.16,                                   ! Conductivity {W/m-K}
  784.9,                                  ! Density {kg/m3}
  830,                                    ! Specific Heat {J/kg-K}
  0.9,                                    ! Thermal Absorptance
  0.92,                                   ! Solar Absorptance
  0.92;                                   ! Visible Absorptance

OS:Material,
  {4f61b680-33b1-4cf3-a526-fc72614121c4}, ! Handle
  Metal Siding,                           ! Name
  Smooth,                                 ! Roughness
  0.0015,                                 ! Thickness {m}
  44.96,                                  ! Conductivity {W/m-K}
  7688.86,                                ! Density {kg/m3}
  410,                                    ! Specific Heat {J/kg-K}
  0.9,                                    ! Thermal Absorptance
  0.2,                                    ! Solar Absorptance
  0.2;                                    ! Visible Absorptance

OS:ComponentCost:LineItem,
  {b665c7cc-6562-4490-bb32-3bba66b32397}, ! Handle
  90.1-2004 Res 2A Ext Wall Metal Building, ! Name
  ,                                       ! Type
  Construction,                           ! Line Item Type
  90.1-2004 Res 2A Ext Wall Metal Building, ! Item Name
  ,                                       ! Object End Use Key
  ,                                       ! Quantity {dimensionless}
  98.78,                                  ! Material Cost {$}
  CostPerArea;                            ! Material Cost Units

OS:Material,
  {a302ba13-453d-4f77-9a4e-360c59935b4e}, ! Handle
  Wall Insulation,                        ! Name
  MediumRough,                            ! Roughness
  0.0598725,                              ! Thickness {m}
  0.045,                                  ! Conductivity {W/m-K}
  265,                                    ! Density {kg/m3}
  836.8,                                  ! Specific Heat {J/kg-K}
  0.9,                                    ! Thermal Absorptance
  0.7,                                    ! Solar Absorptance
  0.7;                                    ! Visible Absorptance

OS:Construction,
  {b4c91302-ffc5-4b2b-9e74-a5630f28f2a0}, ! Handle
  90.1-2004 Res 2A Ext Wall Metal Building, ! Name
  ,                                       ! Surface Rendering Name
  {4f61b680-33b1-4cf3-a526-fc72614121c4}, ! Layer 1
  {a302ba13-453d-4f77-9a4e-360c59935b4e}, ! Layer 2
  {6266d566-73d0-43b5-ba1a-5ffee897fff1}; ! Layer 3

