
OS:Version,
  {f138751b-e496-46cf-936d-d5ea98e101f1}, ! Handle
  0.9.3;                                  ! Version Identifier

OS:ComponentCost:LineItem,
  {2bfdeafc-6f63-40b7-8db4-c2a6c43c80ed}, ! Handle
  90.1-2001 Nonres B13 Window Fixed,      ! Name
  ,                                       ! Type
  Construction,                           ! Line Item Type
  90.1-2001 Nonres B13 Window Fixed,      ! Item Name
  ,                                       ! Object End Use Key
  ,                                       ! Quantity {dimensionless}
  554.2,                                  ! Material Cost {$}
  CostPerArea;                            ! Material Cost Units

OS:Construction,
  {6c89c4e2-f558-4ddb-974a-9cef9dbaddcb}, ! Handle
  90.1-2001 Nonres B13 Window Fixed,      ! Name
  ,                                       ! Surface Rendering Name
  {e3b4e3ec-d925-4c1e-acc0-f8ea85a6ba05}; ! Layer 1

OS:WindowMaterial:Glazing,
  {e3b4e3ec-d925-4c1e-acc0-f8ea85a6ba05}, ! Handle
  Theoretical Glass [36],                 ! Name
  SpectralAverage,                        ! Optical Data Type
  ,                                       ! Window Glass Spectral Data Set Name
  0.003,                                  ! Thickness {m}
  0.354957,                               ! Solar Transmittance at Normal Incidence
  0.595043,                               ! Front Side Solar Reflectance at Normal Incidence
  0.595043,                               ! Back Side Solar Reflectance at Normal Incidence
  0.376261,                               ! Visible Transmittance at Normal Incidence
  0.573739,                               ! Front Side Visible Reflectance at Normal Incidence
  0.573739,                               ! Back Side Visible Reflectance at Normal Incidence
  0,                                      ! Infrared Transmittance at Normal Incidence
  0.9,                                    ! Front Side Infrared Hemispherical Emissivity
  0.9,                                    ! Back Side Infrared Hemispherical Emissivity
  0.0134755;                              ! Conductivity {W/m-K}

