
OS:Version,
  {3c6c96aa-3b48-436e-b1ec-9fd097a07344}, ! Handle
  0.9.3;                                  ! Version Identifier

OS:WindowMaterial:Glazing,
  {cefd34f6-8822-47ed-ab76-e255f8c414c2}, ! Handle
  Theoretical Glass [169],                ! Name
  SpectralAverage,                        ! Optical Data Type
  ,                                       ! Window Glass Spectral Data Set Name
  0.003,                                  ! Thickness {m}
  0.177138,                               ! Solar Transmittance at Normal Incidence
  0.772862,                               ! Front Side Solar Reflectance at Normal Incidence
  0.772862,                               ! Back Side Solar Reflectance at Normal Incidence
  0.242683,                               ! Visible Transmittance at Normal Incidence
  0.707317,                               ! Front Side Visible Reflectance at Normal Incidence
  0.707317,                               ! Back Side Visible Reflectance at Normal Incidence
  0,                                      ! Infrared Transmittance at Normal Incidence
  0.999,                                  ! Front Side Infrared Hemispherical Emissivity
  0.999,                                  ! Back Side Infrared Hemispherical Emissivity
  296.427;                                ! Conductivity {W/m-K}

OS:Construction,
  {a46e66ff-8f86-4fcc-b8da-6ba928f496fa}, ! Handle
  90.1-2007 Res 1A Skylight without Curb, ! Name
  ,                                       ! Surface Rendering Name
  {cefd34f6-8822-47ed-ab76-e255f8c414c2}; ! Layer 1

OS:ComponentCost:LineItem,
  {65fb631f-7b07-4ddc-b991-d6ba4a2ce4de}, ! Handle
  90.1-2007 Res 1A Skylight without Curb, ! Name
  ,                                       ! Type
  Construction,                           ! Line Item Type
  90.1-2007 Res 1A Skylight without Curb, ! Item Name
  ,                                       ! Object End Use Key
  ,                                       ! Quantity {dimensionless}
  498.248,                                ! Material Cost {$}
  CostPerArea;                            ! Material Cost Units

