
OS:Version,
  {095827f5-3619-421e-b063-14e9594afd44}, ! Handle
  0.9.3;                                  ! Version Identifier

OS:WindowMaterial:Glazing,
  {27a8134b-09a5-41ff-9ed4-06b01df78a92}, ! Handle
  Theoretical Glass [129],                ! Name
  SpectralAverage,                        ! Optical Data Type
  ,                                       ! Window Glass Spectral Data Set Name
  0.003,                                  ! Thickness {m}
  0.177138,                               ! Solar Transmittance at Normal Incidence
  0.772862,                               ! Front Side Solar Reflectance at Normal Incidence
  0.772862,                               ! Back Side Solar Reflectance at Normal Incidence
  0.242683,                               ! Visible Transmittance at Normal Incidence
  0.707317,                               ! Front Side Visible Reflectance at Normal Incidence
  0.707317,                               ! Back Side Visible Reflectance at Normal Incidence
  0,                                      ! Infrared Transmittance at Normal Incidence
  0.999,                                  ! Front Side Infrared Hemispherical Emissivity
  0.999,                                  ! Back Side Infrared Hemispherical Emissivity
  299.383;                                ! Conductivity {W/m-K}

OS:Construction,
  {28b4fdfe-7116-4326-ab30-dd1dc5460b06}, ! Handle
  90.1-2004 Res 1A Skylight without Curb, ! Name
  ,                                       ! Surface Rendering Name
  {27a8134b-09a5-41ff-9ed4-06b01df78a92}; ! Layer 1

OS:ComponentCost:LineItem,
  {4b7a4eb0-8d34-40bf-b5ab-151d7e7beec0}, ! Handle
  90.1-2004 Res 1A Skylight without Curb, ! Name
  ,                                       ! Type
  Construction,                           ! Line Item Type
  90.1-2004 Res 1A Skylight without Curb, ! Item Name
  ,                                       ! Object End Use Key
  ,                                       ! Quantity {dimensionless}
  498.248,                                ! Material Cost {$}
  CostPerArea;                            ! Material Cost Units

