
OS:Version,
  {d837368a-bc57-4a65-a389-5e0429914275}, ! Handle
  0.9.3;                                  ! Version Identifier

OS:Construction,
  {97531d61-09e0-4cb5-984a-bcd7c6641f35}, ! Handle
  90.1-2004 Res 1A Skylight without Curb, ! Name
  ,                                       ! Surface Rendering Name
  {f80e9028-f53b-4ca6-96d3-21c0742e4349}; ! Layer 1

OS:WindowMaterial:Glazing,
  {f80e9028-f53b-4ca6-96d3-21c0742e4349}, ! Handle
  Theoretical Glass [129],                ! Name
  SpectralAverage,                        ! Optical Data Type
  ,                                       ! Window Glass Spectral Data Set Name
  0.003,                                  ! Thickness {m}
  0.177138,                               ! Solar Transmittance at Normal Incidence
  0.772862,                               ! Front Side Solar Reflectance at Normal Incidence
  0.772862,                               ! Back Side Solar Reflectance at Normal Incidence
  0.242683,                               ! Visible Transmittance at Normal Incidence
  0.707317,                               ! Front Side Visible Reflectance at Normal Incidence
  0.707317,                               ! Back Side Visible Reflectance at Normal Incidence
  0,                                      ! Infrared Transmittance at Normal Incidence
  0.999,                                  ! Front Side Infrared Hemispherical Emissivity
  0.999,                                  ! Back Side Infrared Hemispherical Emissivity
  299.383;                                ! Conductivity {W/m-K}

OS:ComponentCost:LineItem,
  {a4977585-2489-437a-841f-5912f1e770e0}, ! Handle
  90.1-2004 Res 1A Skylight without Curb, ! Name
  ,                                       ! Type
  Construction,                           ! Line Item Type
  90.1-2004 Res 1A Skylight without Curb, ! Item Name
  ,                                       ! Object End Use Key
  ,                                       ! Quantity {dimensionless}
  498.248,                                ! Material Cost {$}
  CostPerArea;                            ! Material Cost Units

OS:ComponentData,
  {24838efb-40db-421b-ae01-4da29a7bfe8c}, ! Handle
  Component Data 1,                       ! Name
  {0d003b9d-fb94-4a65-907d-15687a3afdea}, ! UUID
  {d42babd9-944e-448e-9853-a8e24f6dd48c}, ! Version UUID
  1363981715,                             ! Creation Timestamp
  1363981715,                             ! Version Timestamp
  {97531d61-09e0-4cb5-984a-bcd7c6641f35}, ! Name of Object 1
  {f80e9028-f53b-4ca6-96d3-21c0742e4349}, ! Name of Object 2
  {a4977585-2489-437a-841f-5912f1e770e0}; ! Name of Object 3

