
OS:Version,
  {698cf8e1-7e15-44e5-b881-c025559f969e}, ! Handle
  0.9.3;                                  ! Version Identifier

OS:ComponentCost:LineItem,
  {8f4b65cf-1bd5-4308-9052-2c2c744222f2}, ! Handle
  90.1-2004 Res 3C Window Fixed,          ! Name
  ,                                       ! Type
  Construction,                           ! Line Item Type
  90.1-2004 Res 3C Window Fixed,          ! Item Name
  ,                                       ! Object End Use Key
  ,                                       ! Quantity {dimensionless}
  483.937,                                ! Material Cost {$}
  CostPerArea;                            ! Material Cost Units

OS:Construction,
  {0d344832-a9eb-41b8-854f-65b30aa9a794}, ! Handle
  90.1-2004 Res 3C Window Fixed,          ! Name
  ,                                       ! Surface Rendering Name
  {bb53f08f-8990-43a6-beea-e2cd238d5297}; ! Layer 1

OS:WindowMaterial:Glazing,
  {bb53f08f-8990-43a6-beea-e2cd238d5297}, ! Handle
  Theoretical Glass [160],                ! Name
  SpectralAverage,                        ! Optical Data Type
  ,                                       ! Window Glass Spectral Data Set Name
  0.003,                                  ! Thickness {m}
  0.599533,                               ! Solar Transmittance at Normal Incidence
  0.350467,                               ! Front Side Solar Reflectance at Normal Incidence
  0.350467,                               ! Back Side Solar Reflectance at Normal Incidence
  0.609218,                               ! Visible Transmittance at Normal Incidence
  0.340782,                               ! Front Side Visible Reflectance at Normal Incidence
  0.340782,                               ! Back Side Visible Reflectance at Normal Incidence
  0,                                      ! Infrared Transmittance at Normal Incidence
  0.9,                                    ! Front Side Infrared Hemispherical Emissivity
  0.9,                                    ! Back Side Infrared Hemispherical Emissivity
  0.0476997;                              ! Conductivity {W/m-K}

