
OS:Version,
  {42dedf0c-b6d0-4ddb-87de-69819eb41dc2}, ! Handle
  0.9.3;                                  ! Version Identifier

OS:Construction,
  {b8077bd6-8203-40f5-8bfc-0fd20ecbeca1}, ! Handle
  90.1-2004 Res 7A Ext Slab Unheated - 8in Slab without Carpet, ! Name
  ,                                       ! Surface Rendering Name
  {1e3918c9-cf82-4607-afbe-7c772c3764a6}; ! Layer 1

OS:Material,
  {1e3918c9-cf82-4607-afbe-7c772c3764a6}, ! Handle
  MAT-CC05 8 HW CONCRETE,                 ! Name
  Rough,                                  ! Roughness
  0.20321,                                ! Thickness {m}
  1.311,                                  ! Conductivity {W/m-K}
  2240,                                   ! Density {kg/m3}
  836.8,                                  ! Specific Heat {J/kg-K}
  0.9,                                    ! Thermal Absorptance
  0.7,                                    ! Solar Absorptance
  0.7;                                    ! Visible Absorptance

OS:ComponentCost:LineItem,
  {e4a023ea-bd1b-408d-aafa-2a7876814462}, ! Handle
  90.1-2004 Res 7A Ext Slab Unheated - 8in Slab without Carpet, ! Name
  ,                                       ! Type
  Construction,                           ! Line Item Type
  90.1-2004 Res 7A Ext Slab Unheated - 8in Slab without Carpet, ! Item Name
  ,                                       ! Object End Use Key
  ,                                       ! Quantity {dimensionless}
  45.52,                                  ! Material Cost {$}
  CostPerArea;                            ! Material Cost Units

OS:ComponentData,
  {395d3382-5fac-44e0-ac8a-309b886e0d7b}, ! Handle
  Component Data 1,                       ! Name
  {909e51de-8412-4eac-a88e-e321236e00f7}, ! UUID
  {8141766b-0f26-486b-9cee-61543d5c219e}, ! Version UUID
  1363981761,                             ! Creation Timestamp
  1363981761,                             ! Version Timestamp
  {b8077bd6-8203-40f5-8bfc-0fd20ecbeca1}, ! Name of Object 1
  {1e3918c9-cf82-4607-afbe-7c772c3764a6}, ! Name of Object 2
  {e4a023ea-bd1b-408d-aafa-2a7876814462}; ! Name of Object 3

