
OS:Version,
  {416dd123-18b8-41cd-8ca4-672059567a2c}, ! Handle
  0.9.3;                                  ! Version Identifier

OS:Construction,
  {ae164bcb-0cc6-4f80-93db-72150bf2f050}, ! Handle
  90.1-1999 Res B24 Skylight without Curb, ! Name
  ,                                       ! Surface Rendering Name
  {30999b26-ce53-4a5e-8254-0bd001494c89}; ! Layer 1

OS:WindowMaterial:Glazing,
  {30999b26-ce53-4a5e-8254-0bd001494c89}, ! Handle
  Theoretical Glass [111],                ! Name
  SpectralAverage,                        ! Optical Data Type
  ,                                       ! Window Glass Spectral Data Set Name
  0.003,                                  ! Thickness {m}
  0.471791,                               ! Solar Transmittance at Normal Incidence
  0.478209,                               ! Front Side Solar Reflectance at Normal Incidence
  0.478209,                               ! Back Side Solar Reflectance at Normal Incidence
  0.529698,                               ! Visible Transmittance at Normal Incidence
  0.420302,                               ! Front Side Visible Reflectance at Normal Incidence
  0.420302,                               ! Back Side Visible Reflectance at Normal Incidence
  0,                                      ! Infrared Transmittance at Normal Incidence
  0.9,                                    ! Front Side Infrared Hemispherical Emissivity
  0.9,                                    ! Back Side Infrared Hemispherical Emissivity
  0.0214562;                              ! Conductivity {W/m-K}

OS:ComponentCost:LineItem,
  {ccf4fc4a-21c0-4dfd-a26d-7f9161dacba7}, ! Handle
  90.1-1999 Res B24 Skylight without Curb, ! Name
  ,                                       ! Type
  Construction,                           ! Line Item Type
  90.1-1999 Res B24 Skylight without Curb, ! Item Name
  ,                                       ! Object End Use Key
  ,                                       ! Quantity {dimensionless}
  524.932,                                ! Material Cost {$}
  CostPerArea;                            ! Material Cost Units

OS:ComponentData,
  {48e41012-506d-496b-9056-eb5902a2d565}, ! Handle
  Component Data 1,                       ! Name
  {ff9979cd-06dc-436d-a500-076e2174d775}, ! UUID
  {0c2f4f38-5baf-4636-b05f-0ae3dc4c3fa7}, ! Version UUID
  1363981273,                             ! Creation Timestamp
  1363981273,                             ! Version Timestamp
  {ae164bcb-0cc6-4f80-93db-72150bf2f050}, ! Name of Object 1
  {30999b26-ce53-4a5e-8254-0bd001494c89}, ! Name of Object 2
  {ccf4fc4a-21c0-4dfd-a26d-7f9161dacba7}; ! Name of Object 3

