
OS:Version,
  {8b1d15f7-29df-4823-ad59-3635b6b26abe}, ! Handle
  0.9.3;                                  ! Version Identifier

OS:Material,
  {db29e7db-13b4-4663-8925-b513e1561be7}, ! Handle
  1/2IN Gypsum,                           ! Name
  Smooth,                                 ! Roughness
  0.01271,                                ! Thickness {m}
  0.16,                                   ! Conductivity {W/m-K}
  784.9,                                  ! Density {kg/m3}
  830,                                    ! Specific Heat {J/kg-K}
  0.9,                                    ! Thermal Absorptance
  0.92,                                   ! Solar Absorptance
  0.92;                                   ! Visible Absorptance

OS:Material,
  {b5394f65-b519-445d-87ca-20c6ccc45763}, ! Handle
  Wood Siding,                            ! Name
  MediumSmooth,                           ! Roughness
  0.01,                                   ! Thickness {m}
  0.11,                                   ! Conductivity {W/m-K}
  544.62,                                 ! Density {kg/m3}
  1210,                                   ! Specific Heat {J/kg-K}
  0.9,                                    ! Thermal Absorptance
  0.78,                                   ! Solar Absorptance
  0.78;                                   ! Visible Absorptance

OS:ComponentCost:LineItem,
  {c077b855-49bc-49cf-9c6a-fb8a88a84faf}, ! Handle
  189.1-2009 Nonres 4B Ext Wall Wood-Framed and Other, ! Name
  ,                                       ! Type
  Construction,                           ! Line Item Type
  189.1-2009 Nonres 4B Ext Wall Wood-Framed and Other, ! Item Name
  ,                                       ! Object End Use Key
  ,                                       ! Quantity {dimensionless}
  77.743,                                 ! Material Cost {$}
  CostPerArea;                            ! Material Cost Units

OS:Material,
  {a099dcec-dc6e-406e-bc0f-34bb949acf85}, ! Handle
  Wall Insulation [34],                   ! Name
  MediumRough,                            ! Roughness
  0.110422,                               ! Thickness {m}
  0.045,                                  ! Conductivity {W/m-K}
  265,                                    ! Density {kg/m3}
  836.8,                                  ! Specific Heat {J/kg-K}
  0.9,                                    ! Thermal Absorptance
  0.7,                                    ! Solar Absorptance
  0.7;                                    ! Visible Absorptance

OS:Construction,
  {0acbd6d0-9841-4ada-8f43-11731fa17cc9}, ! Handle
  189.1-2009 Nonres 4B Ext Wall Wood-Framed and Other, ! Name
  ,                                       ! Surface Rendering Name
  {b5394f65-b519-445d-87ca-20c6ccc45763}, ! Layer 1
  {a099dcec-dc6e-406e-bc0f-34bb949acf85}, ! Layer 2
  {db29e7db-13b4-4663-8925-b513e1561be7}; ! Layer 3

