
OS:Version,
  {5ccb32cc-7686-49f0-8bd3-b23a8a70905a}, ! Handle
  0.9.3;                                  ! Version Identifier

OS:Material,
  {060666bc-f15c-4f5b-84d9-68893fafdc53}, ! Handle
  Roof Insulation [1],                    ! Name
  MediumRough,                            ! Roughness
  0.123533,                               ! Thickness {m}
  0.049,                                  ! Conductivity {W/m-K}
  265,                                    ! Density {kg/m3}
  836.8,                                  ! Specific Heat {J/kg-K}
  0.9,                                    ! Thermal Absorptance
  0.7,                                    ! Solar Absorptance
  0.7;                                    ! Visible Absorptance

OS:Construction,
  {e2de30a0-2c24-43fa-a4b4-6ea59d588818}, ! Handle
  90.1-1999 Nonres B6 Roof Metal Building, ! Name
  ,                                       ! Surface Rendering Name
  {70ca156d-0f1a-4e21-8f8f-3083d4ef4c5e}, ! Layer 1
  {060666bc-f15c-4f5b-84d9-68893fafdc53}; ! Layer 2

OS:Material,
  {70ca156d-0f1a-4e21-8f8f-3083d4ef4c5e}, ! Handle
  Metal Roofing,                          ! Name
  MediumSmooth,                           ! Roughness
  0.001524,                               ! Thickness {m}
  45.006,                                 ! Conductivity {W/m-K}
  7680,                                   ! Density {kg/m3}
  418.4,                                  ! Specific Heat {J/kg-K}
  0.9,                                    ! Thermal Absorptance
  0.7,                                    ! Solar Absorptance
  0.3;                                    ! Visible Absorptance

OS:ComponentCost:LineItem,
  {6099304a-f331-4bba-b799-339e4f5fba55}, ! Handle
  90.1-1999 Nonres B6 Roof Metal Building, ! Name
  ,                                       ! Type
  Construction,                           ! Line Item Type
  90.1-1999 Nonres B6 Roof Metal Building, ! Item Name
  ,                                       ! Object End Use Key
  ,                                       ! Quantity {dimensionless}
  38.206,                                 ! Material Cost {$}
  CostPerArea;                            ! Material Cost Units

