
OS:Version,
  {072388f8-b0b3-4d9c-be99-de5803bd564f}, ! Handle
  0.9.3;                                  ! Version Identifier

OS:Material:NoMass,
  {000fa601-052c-4b4c-9b51-60ca23af26f4}, ! Handle
  CP02 CARPET PAD,                        ! Name
  VeryRough,                              ! Roughness
  0.21648,                                ! Thermal Resistance {m2-K/W}
  0.9,                                    ! Thermal Absorptance
  0.7,                                    ! Solar Absorptance
  0.8;                                    ! Visible Absorptance

OS:Construction,
  {7331da47-8c2b-46af-b2a4-cd1ec696e295}, ! Handle
  90.1-2004 Nonres 6B Ext Slab Unheated - 8in Slab with Carpet, ! Name
  ,                                       ! Surface Rendering Name
  {e498d608-0555-4bfb-8adf-64143396687c}, ! Layer 1
  {000fa601-052c-4b4c-9b51-60ca23af26f4}; ! Layer 2

OS:Material,
  {e498d608-0555-4bfb-8adf-64143396687c}, ! Handle
  MAT-CC05 8 HW CONCRETE,                 ! Name
  Rough,                                  ! Roughness
  0.20321,                                ! Thickness {m}
  1.311,                                  ! Conductivity {W/m-K}
  2240,                                   ! Density {kg/m3}
  836.8,                                  ! Specific Heat {J/kg-K}
  0.9,                                    ! Thermal Absorptance
  0.7,                                    ! Solar Absorptance
  0.7;                                    ! Visible Absorptance

OS:ComponentCost:LineItem,
  {abe0ee1e-533d-4b72-a9e5-54dd3c11c0b3}, ! Handle
  90.1-2004 Nonres 6B Ext Slab Unheated - 8in Slab with Carpet, ! Name
  ,                                       ! Type
  Construction,                           ! Line Item Type
  90.1-2004 Nonres 6B Ext Slab Unheated - 8in Slab with Carpet, ! Item Name
  ,                                       ! Object End Use Key
  ,                                       ! Quantity {dimensionless}
  45.52,                                  ! Material Cost {$}
  CostPerArea;                            ! Material Cost Units

