
OS:Version,
  {559a98de-3af2-4965-8529-e7ef893ff02c}, ! Handle
  0.9.3;                                  ! Version Identifier

OS:Construction,
  {128479cc-458c-4e81-b441-1408e920fb69}, ! Handle
  Title 24-2008 Nonres 2 Ext Slab Unheated - 4in Slab with Carpet, ! Name
  ,                                       ! Surface Rendering Name
  {ecfb150c-0a22-48b2-85c7-6b49a6f233f9}, ! Layer 1
  {492543d2-d6bf-44a8-a877-c3e343ba2288}; ! Layer 2

OS:Material,
  {ecfb150c-0a22-48b2-85c7-6b49a6f233f9}, ! Handle
  MAT-CC05 4 HW CONCRETE,                 ! Name
  Rough,                                  ! Roughness
  0.1016,                                 ! Thickness {m}
  1.311,                                  ! Conductivity {W/m-K}
  2240,                                   ! Density {kg/m3}
  836.8,                                  ! Specific Heat {J/kg-K}
  0.9,                                    ! Thermal Absorptance
  0.7,                                    ! Solar Absorptance
  0.7;                                    ! Visible Absorptance

OS:Material:NoMass,
  {492543d2-d6bf-44a8-a877-c3e343ba2288}, ! Handle
  CP02 CARPET PAD,                        ! Name
  VeryRough,                              ! Roughness
  0.21648,                                ! Thermal Resistance {m2-K/W}
  0.9,                                    ! Thermal Absorptance
  0.7,                                    ! Solar Absorptance
  0.8;                                    ! Visible Absorptance

OS:ComponentCost:LineItem,
  {033394ec-151b-4584-841a-a8f12ee84983}, ! Handle
  Title 24-2008 Nonres 2 Ext Slab Unheated - 4in Slab with Carpet, ! Name
  ,                                       ! Type
  Construction,                           ! Line Item Type
  Title 24-2008 Nonres 2 Ext Slab Unheated - 4in Slab with Carpet, ! Item Name
  ,                                       ! Object End Use Key
  ,                                       ! Quantity {dimensionless}
  45.52,                                  ! Material Cost {$}
  CostPerArea;                            ! Material Cost Units

