
OS:Version,
  {9c3a46fc-6c0a-41cd-a995-fb5f9c5692e3}, ! Handle
  0.9.3;                                  ! Version Identifier

OS:Material:NoMass,
  {83fe1d34-5fb8-49db-84fa-93e995da2128}, ! Handle
  CP02 CARPET PAD,                        ! Name
  VeryRough,                              ! Roughness
  0.21648,                                ! Thermal Resistance {m2-K/W}
  0.9,                                    ! Thermal Absorptance
  0.7,                                    ! Solar Absorptance
  0.8;                                    ! Visible Absorptance

OS:Material,
  {2fe24795-4541-4f99-8c3c-05307e5a4a8e}, ! Handle
  MAT-CC05 8 HW CONCRETE,                 ! Name
  Rough,                                  ! Roughness
  0.20321,                                ! Thickness {m}
  1.311,                                  ! Conductivity {W/m-K}
  2240,                                   ! Density {kg/m3}
  836.8,                                  ! Specific Heat {J/kg-K}
  0.9,                                    ! Thermal Absorptance
  0.7,                                    ! Solar Absorptance
  0.7;                                    ! Visible Absorptance

OS:ComponentCost:LineItem,
  {91d0ae00-98db-470a-8b1a-c14e25626e76}, ! Handle
  189.1-2009 Res 5B Exposed Floor Mass,   ! Name
  ,                                       ! Type
  Construction,                           ! Line Item Type
  189.1-2009 Res 5B Exposed Floor Mass,   ! Item Name
  ,                                       ! Object End Use Key
  ,                                       ! Quantity {dimensionless}
  56.489,                                 ! Material Cost {$}
  CostPerArea;                            ! Material Cost Units

OS:Construction,
  {bfccdbda-5e42-40fd-9233-a14490408ae9}, ! Handle
  189.1-2009 Res 5B Exposed Floor Mass,   ! Name
  ,                                       ! Surface Rendering Name
  {d2531680-d95b-43b5-a72a-cf18902a464d}, ! Layer 1
  {2fe24795-4541-4f99-8c3c-05307e5a4a8e}, ! Layer 2
  {83fe1d34-5fb8-49db-84fa-93e995da2128}; ! Layer 3

OS:Material,
  {d2531680-d95b-43b5-a72a-cf18902a464d}, ! Handle
  Floor Insulation [10],                  ! Name
  MediumRough,                            ! Roughness
  0.11289,                                ! Thickness {m}
  0.045,                                  ! Conductivity {W/m-K}
  265,                                    ! Density {kg/m3}
  836.8,                                  ! Specific Heat {J/kg-K}
  0.9,                                    ! Thermal Absorptance
  0.7,                                    ! Solar Absorptance
  0.7;                                    ! Visible Absorptance

