
OS:Version,
  {48df9d5b-c04b-43c6-a51a-fb1137149c1c}, !- Handle
  1.0.6;                                  !- Version Identifier

OS:WindowMaterial:Glazing,
  {77b64733-8d1e-4047-9f9e-867ccb4ce8a4}, !- Handle
  189.1-2011 NONRES 4B METAL FRAMING CURTAINWALL-STOREFRONT THEORETICAL GLAZING, !- Name
  SpectralAverage,                        !- Optical Data Type
  ,                                       !- Window Glass Spectral Data Set Name
  0.03252,                                !- Thickness {m}
  0.26293,                                !- Solar Transmittance at Normal Incidence
  0.52527,                                !- Front Side Solar Reflectance at Normal Incidence
  0.52527,                                !- Back Side Solar Reflectance at Normal Incidence
  0.26293,                                !- Visible Transmittance at Normal Incidence
  0.52527,                                !- Front Side Visible Reflectance at Normal Incidence
  0.52527,                                !- Back Side Visible Reflectance at Normal Incidence
  0,                                      !- Infrared Transmittance at Normal Incidence
  0.84,                                   !- Front Side Infrared Hemispherical Emissivity
  0.84,                                   !- Back Side Infrared Hemispherical Emissivity
  0.12124,                                !- Conductivity {W/m-K}
  1,                                      !- Dirt Correction Factor for Solar and Visible Transmittance
  No;                                     !- Solar Diffusing

OS:Construction,
  {a1a26a6c-088e-474a-92ac-73a879038d5e}, !- Handle
  189.1-2011 NONRES 4B METAL FRAMING CURTAINWALL-STOREFRONT, !- Name
  ,                                       !- Surface Rendering Name
  {77b64733-8d1e-4047-9f9e-867ccb4ce8a4}; !- Layer 1

