
OS:Version,
  {a87f866e-ce00-4075-8835-46a908641b2a}, ! Handle
  0.9.3;                                  ! Version Identifier

OS:Material,
  {68596bc8-1199-4ffe-8751-2664d1529e7e}, ! Handle
  GP01 1/2 GYPSUM 1,                      ! Name
  Smooth,                                 ! Roughness
  0.01271,                                ! Thickness {m}
  0.16,                                   ! Conductivity {W/m-K}
  800,                                    ! Density {kg/m3}
  1090,                                   ! Specific Heat {J/kg-K}
  0.9,                                    ! Thermal Absorptance
  0.7,                                    ! Solar Absorptance
  0.5;                                    ! Visible Absorptance

OS:ComponentCost:LineItem,
  {7e5a5d1b-b63b-4f9e-ad33-6d2a9c8bb903}, ! Handle
  Title 24-2008 Nonres 9 Int Wall,        ! Name
  ,                                       ! Type
  Construction,                           ! Line Item Type
  Title 24-2008 Nonres 9 Int Wall,        ! Item Name
  ,                                       ! Object End Use Key
  ,                                       ! Quantity {dimensionless}
  0,                                      ! Material Cost {$}
  CostPerArea;                            ! Material Cost Units

OS:Construction,
  {32b3d7b5-9f5c-4ded-88d3-81946646d440}, ! Handle
  Title 24-2008 Nonres 9 Int Wall,        ! Name
  ,                                       ! Surface Rendering Name
  {e7451020-b502-4c73-8a43-da90e7e192bb}, ! Layer 1
  {e7451020-b502-4c73-8a43-da90e7e192bb}; ! Layer 2

OS:Material,
  {e7451020-b502-4c73-8a43-da90e7e192bb}, ! Handle
  GP01 1/2 GYPSUM,                        ! Name
  Smooth,                                 ! Roughness
  0.01271,                                ! Thickness {m}
  0.16,                                   ! Conductivity {W/m-K}
  800,                                    ! Density {kg/m3}
  1090,                                   ! Specific Heat {J/kg-K}
  0.9,                                    ! Thermal Absorptance
  0.7,                                    ! Solar Absorptance
  0.5;                                    ! Visible Absorptance

