
OS:Version,
  {6bb9949b-33e5-4ca7-813e-08f41e946c97}, ! Handle
  0.9.3;                                  ! Version Identifier

OS:ComponentCost:LineItem,
  {a1412611-eda9-4b15-be92-6c70ad623f11}, ! Handle
  90.1-1999 Nonres B7 Skylight without Curb, ! Name
  ,                                       ! Type
  Construction,                           ! Line Item Type
  90.1-1999 Nonres B7 Skylight without Curb, ! Item Name
  ,                                       ! Object End Use Key
  ,                                       ! Quantity {dimensionless}
  459.189,                                ! Material Cost {$}
  CostPerArea;                            ! Material Cost Units

OS:Construction,
  {9b592af8-32c3-41cf-b45b-972f08a94a82}, ! Handle
  90.1-1999 Nonres B7 Skylight without Curb, ! Name
  ,                                       ! Surface Rendering Name
  {5735c8b3-86f1-4d84-a894-09fa601b45bb}; ! Layer 1

OS:WindowMaterial:Glazing,
  {5735c8b3-86f1-4d84-a894-09fa601b45bb}, ! Handle
  Theoretical Glass [12],                 ! Name
  SpectralAverage,                        ! Optical Data Type
  ,                                       ! Window Glass Spectral Data Set Name
  0.003,                                  ! Thickness {m}
  0.595954,                               ! Solar Transmittance at Normal Incidence
  0.354046,                               ! Front Side Solar Reflectance at Normal Incidence
  0.354046,                               ! Back Side Solar Reflectance at Normal Incidence
  0.671296,                               ! Visible Transmittance at Normal Incidence
  0.278704,                               ! Front Side Visible Reflectance at Normal Incidence
  0.278704,                               ! Back Side Visible Reflectance at Normal Incidence
  0,                                      ! Infrared Transmittance at Normal Incidence
  0.999,                                  ! Front Side Infrared Hemispherical Emissivity
  0.999,                                  ! Back Side Infrared Hemispherical Emissivity
  299.383;                                ! Conductivity {W/m-K}

