
OS:Version,
  {96744d1f-33ed-4cf6-9232-ad6184f2b1c7}, ! Handle
  0.9.3;                                  ! Version Identifier

OS:Construction,
  {27d1e74d-6a1f-4c07-a84d-438c0709ae9e}, ! Handle
  Title 24-2008 Nonres 15 Window Fixed,   ! Name
  ,                                       ! Surface Rendering Name
  {e95881b1-7eef-4f40-ac83-0d7773a1073b}; ! Layer 1

OS:WindowMaterial:Glazing,
  {e95881b1-7eef-4f40-ac83-0d7773a1073b}, ! Handle
  Theoretical Glass [673],                ! Name
  SpectralAverage,                        ! Optical Data Type
  ,                                       ! Window Glass Spectral Data Set Name
  0.003,                                  ! Thickness {m}
  0.304934,                               ! Solar Transmittance at Normal Incidence
  0.645066,                               ! Front Side Solar Reflectance at Normal Incidence
  0.645066,                               ! Back Side Solar Reflectance at Normal Incidence
  0.310844,                               ! Visible Transmittance at Normal Incidence
  0.639156,                               ! Front Side Visible Reflectance at Normal Incidence
  0.639156,                               ! Back Side Visible Reflectance at Normal Incidence
  0,                                      ! Infrared Transmittance at Normal Incidence
  0.9,                                    ! Front Side Infrared Hemispherical Emissivity
  0.9,                                    ! Back Side Infrared Hemispherical Emissivity
  0.0139798;                              ! Conductivity {W/m-K}

OS:ComponentCost:LineItem,
  {e0f5a833-2955-4d0f-9b4c-be84d1d06a51}, ! Handle
  Title 24-2008 Nonres 15 Window Fixed,   ! Name
  ,                                       ! Type
  Construction,                           ! Line Item Type
  Title 24-2008 Nonres 15 Window Fixed,   ! Item Name
  ,                                       ! Object End Use Key
  ,                                       ! Quantity {dimensionless}
  590.138,                                ! Material Cost {$}
  CostPerArea;                            ! Material Cost Units

