
OS:Version,
  {61fbfcdf-c771-4ba6-806c-6a046be314b4}, ! Handle
  0.9.3;                                  ! Version Identifier

OS:Construction,
  {411d12be-3323-47a3-8cf9-54425036e96b}, ! Handle
  Title 24-2008 Nonres 12 Window Fixed,   ! Name
  ,                                       ! Surface Rendering Name
  {3d47b641-e3d2-4764-883c-585ad036a7b3}; ! Layer 1

OS:WindowMaterial:Glazing,
  {3d47b641-e3d2-4764-883c-585ad036a7b3}, ! Handle
  Theoretical Glass [673],                ! Name
  SpectralAverage,                        ! Optical Data Type
  ,                                       ! Window Glass Spectral Data Set Name
  0.003,                                  ! Thickness {m}
  0.304934,                               ! Solar Transmittance at Normal Incidence
  0.645066,                               ! Front Side Solar Reflectance at Normal Incidence
  0.645066,                               ! Back Side Solar Reflectance at Normal Incidence
  0.310844,                               ! Visible Transmittance at Normal Incidence
  0.639156,                               ! Front Side Visible Reflectance at Normal Incidence
  0.639156,                               ! Back Side Visible Reflectance at Normal Incidence
  0,                                      ! Infrared Transmittance at Normal Incidence
  0.9,                                    ! Front Side Infrared Hemispherical Emissivity
  0.9,                                    ! Back Side Infrared Hemispherical Emissivity
  0.0139798;                              ! Conductivity {W/m-K}

OS:ComponentCost:LineItem,
  {23c48eb3-e4c2-4cb4-952a-53706360c9cb}, ! Handle
  Title 24-2008 Nonres 12 Window Fixed,   ! Name
  ,                                       ! Type
  Construction,                           ! Line Item Type
  Title 24-2008 Nonres 12 Window Fixed,   ! Item Name
  ,                                       ! Object End Use Key
  ,                                       ! Quantity {dimensionless}
  590.138,                                ! Material Cost {$}
  CostPerArea;                            ! Material Cost Units

