
OS:Version,
  {fd3d9048-6e72-4e36-a808-f4cfb6d4f163}, ! Handle
  0.9.3;                                  ! Version Identifier

OS:Construction,
  {2f06ef97-71f5-4b73-94fe-f8d41cddb29b}, ! Handle
  90.1-1999 Res B1 Ext Wall Wood-Framed and Other, ! Name
  ,                                       ! Surface Rendering Name
  {1037b291-9f1d-440c-b4e2-1b99339a0242}, ! Layer 1
  {bfdd1e4b-f6c9-4cef-b8c2-d47e6bd5aba0}, ! Layer 2
  {1cb7e25f-08fe-45c8-a673-bd190692ac67}; ! Layer 3

OS:Material,
  {1037b291-9f1d-440c-b4e2-1b99339a0242}, ! Handle
  Wood Siding,                            ! Name
  MediumSmooth,                           ! Roughness
  0.01,                                   ! Thickness {m}
  0.11,                                   ! Conductivity {W/m-K}
  544.62,                                 ! Density {kg/m3}
  1210,                                   ! Specific Heat {J/kg-K}
  0.9,                                    ! Thermal Absorptance
  0.78,                                   ! Solar Absorptance
  0.78;                                   ! Visible Absorptance

OS:Material,
  {bfdd1e4b-f6c9-4cef-b8c2-d47e6bd5aba0}, ! Handle
  Wall Insulation [2],                    ! Name
  MediumRough,                            ! Roughness
  0.0746874,                              ! Thickness {m}
  0.045,                                  ! Conductivity {W/m-K}
  265,                                    ! Density {kg/m3}
  836.8,                                  ! Specific Heat {J/kg-K}
  0.9,                                    ! Thermal Absorptance
  0.7,                                    ! Solar Absorptance
  0.7;                                    ! Visible Absorptance

OS:Material,
  {1cb7e25f-08fe-45c8-a673-bd190692ac67}, ! Handle
  1/2IN Gypsum,                           ! Name
  Smooth,                                 ! Roughness
  0.01271,                                ! Thickness {m}
  0.16,                                   ! Conductivity {W/m-K}
  784.9,                                  ! Density {kg/m3}
  830,                                    ! Specific Heat {J/kg-K}
  0.9,                                    ! Thermal Absorptance
  0.92,                                   ! Solar Absorptance
  0.92;                                   ! Visible Absorptance

OS:ComponentCost:LineItem,
  {67e632a7-ae12-43df-8734-4255427b3782}, ! Handle
  90.1-1999 Res B1 Ext Wall Wood-Framed and Other, ! Name
  ,                                       ! Type
  Construction,                           ! Line Item Type
  90.1-1999 Res B1 Ext Wall Wood-Framed and Other, ! Item Name
  ,                                       ! Object End Use Key
  ,                                       ! Quantity {dimensionless}
  73.056,                                 ! Material Cost {$}
  CostPerArea;                            ! Material Cost Units

