
OS:Version,
  {97f82aed-82dd-4aba-81e0-59454bdbd899}, ! Handle
  0.9.3;                                  ! Version Identifier

OS:Construction,
  {bdb03054-6680-4e96-8803-4eeee6daa566}, ! Handle
  90.1-1999 Nonres B23 Int Wall,          ! Name
  ,                                       ! Surface Rendering Name
  {7856ac9e-d0a7-4d95-ae90-6ee13f05243c}, ! Layer 1
  {7856ac9e-d0a7-4d95-ae90-6ee13f05243c}; ! Layer 2

OS:Material,
  {7856ac9e-d0a7-4d95-ae90-6ee13f05243c}, ! Handle
  GP01 1/2 GYPSUM,                        ! Name
  Smooth,                                 ! Roughness
  0.01271,                                ! Thickness {m}
  0.16,                                   ! Conductivity {W/m-K}
  800,                                    ! Density {kg/m3}
  1090,                                   ! Specific Heat {J/kg-K}
  0.9,                                    ! Thermal Absorptance
  0.7,                                    ! Solar Absorptance
  0.5;                                    ! Visible Absorptance

OS:ComponentCost:LineItem,
  {a2d38b48-a919-4079-aed5-b9d48814cc79}, ! Handle
  90.1-1999 Nonres B23 Int Wall,          ! Name
  ,                                       ! Type
  Construction,                           ! Line Item Type
  90.1-1999 Nonres B23 Int Wall,          ! Item Name
  ,                                       ! Object End Use Key
  ,                                       ! Quantity {dimensionless}
  0,                                      ! Material Cost {$}
  CostPerArea;                            ! Material Cost Units

OS:ComponentData,
  {4c6d5a3f-fc8d-454b-9dca-390a3d91d938}, ! Handle
  Component Data 1,                       ! Name
  {d491086d-389a-4671-8113-84ed0b1f2b9d}, ! UUID
  {d8b5cea5-7dd9-43a7-a2a5-6452b728712b}, ! Version UUID
  1363981142,                             ! Creation Timestamp
  1363981142,                             ! Version Timestamp
  {bdb03054-6680-4e96-8803-4eeee6daa566}, ! Name of Object 1
  {7856ac9e-d0a7-4d95-ae90-6ee13f05243c}, ! Name of Object 2
  {a2d38b48-a919-4079-aed5-b9d48814cc79}; ! Name of Object 3

