
OS:Version,
  {c8760e35-8143-4e8a-bd5d-b0fa8f33953d}, ! Handle
  0.9.3;                                  ! Version Identifier

OS:Construction,
  {9293c1d2-cc8a-4355-9bd7-385990d5a2bd}, ! Handle
  90.1-2001 Res B14 Ext Slab Unheated - 8in Slab with Carpet, ! Name
  ,                                       ! Surface Rendering Name
  {fbce34b8-3cdf-4ee5-a0ca-ae7ab7f37dc1}, ! Layer 1
  {05ed2d62-c131-4653-aaf2-133b8e5163aa}; ! Layer 2

OS:Material,
  {fbce34b8-3cdf-4ee5-a0ca-ae7ab7f37dc1}, ! Handle
  MAT-CC05 8 HW CONCRETE,                 ! Name
  Rough,                                  ! Roughness
  0.20321,                                ! Thickness {m}
  1.311,                                  ! Conductivity {W/m-K}
  2240,                                   ! Density {kg/m3}
  836.8,                                  ! Specific Heat {J/kg-K}
  0.9,                                    ! Thermal Absorptance
  0.7,                                    ! Solar Absorptance
  0.7;                                    ! Visible Absorptance

OS:Material:NoMass,
  {05ed2d62-c131-4653-aaf2-133b8e5163aa}, ! Handle
  CP02 CARPET PAD,                        ! Name
  VeryRough,                              ! Roughness
  0.21648,                                ! Thermal Resistance {m2-K/W}
  0.9,                                    ! Thermal Absorptance
  0.7,                                    ! Solar Absorptance
  0.8;                                    ! Visible Absorptance

OS:ComponentCost:LineItem,
  {36152de5-21c2-4bb5-b2dd-b81323922f68}, ! Handle
  90.1-2001 Res B14 Ext Slab Unheated - 8in Slab with Carpet, ! Name
  ,                                       ! Type
  Construction,                           ! Line Item Type
  90.1-2001 Res B14 Ext Slab Unheated - 8in Slab with Carpet, ! Item Name
  ,                                       ! Object End Use Key
  ,                                       ! Quantity {dimensionless}
  45.52,                                  ! Material Cost {$}
  CostPerArea;                            ! Material Cost Units

