
OS:Version,
  {19f5968a-9d65-4d93-a71d-1671a2a4a9c0}, ! Handle
  0.9.3;                                  ! Version Identifier

OS:Material,
  {7c127197-5d68-46d3-a150-ab682d0e07b0}, ! Handle
  MAT-CC05 4 HW CONCRETE,                 ! Name
  Rough,                                  ! Roughness
  0.1016,                                 ! Thickness {m}
  1.311,                                  ! Conductivity {W/m-K}
  2240,                                   ! Density {kg/m3}
  836.8,                                  ! Specific Heat {J/kg-K}
  0.9,                                    ! Thermal Absorptance
  0.7,                                    ! Solar Absorptance
  0.7;                                    ! Visible Absorptance

OS:ComponentCost:LineItem,
  {8375da20-9907-4c2d-a057-d3c554f1f7f3}, ! Handle
  90.1-2004 Res 8A Ext Slab Unheated - 4in Slab without Carpet, ! Name
  ,                                       ! Type
  Construction,                           ! Line Item Type
  90.1-2004 Res 8A Ext Slab Unheated - 4in Slab without Carpet, ! Item Name
  ,                                       ! Object End Use Key
  ,                                       ! Quantity {dimensionless}
  45.52,                                  ! Material Cost {$}
  CostPerArea;                            ! Material Cost Units

OS:Construction,
  {d0026c20-b876-4851-bdee-1f5e153bdd6b}, ! Handle
  90.1-2004 Res 8A Ext Slab Unheated - 4in Slab without Carpet, ! Name
  ,                                       ! Surface Rendering Name
  {7c127197-5d68-46d3-a150-ab682d0e07b0}; ! Layer 1

