
OS:Version,
  {66fc4c0e-01db-4173-bf70-b43ab5739cd0}, ! Handle
  0.9.3;                                  ! Version Identifier

OS:Material,
  {95642b91-8ca1-4828-b853-fe5c474b4ead}, ! Handle
  1/2IN Gypsum Bottom,                    ! Name
  Smooth,                                 ! Roughness
  0.01271,                                ! Thickness {m}
  0.16,                                   ! Conductivity {W/m-K}
  784.9,                                  ! Density {kg/m3}
  830,                                    ! Specific Heat {J/kg-K}
  0.9,                                    ! Thermal Absorptance
  0.92,                                   ! Solar Absorptance
  0.92;                                   ! Visible Absorptance

OS:Material,
  {82dd12eb-4acc-405b-a44e-31fe8c02a587}, ! Handle
  1/2IN Gypsum Top,                       ! Name
  Smooth,                                 ! Roughness
  0.01271,                                ! Thickness {m}
  0.16,                                   ! Conductivity {W/m-K}
  784.9,                                  ! Density {kg/m3}
  830,                                    ! Specific Heat {J/kg-K}
  0.9,                                    ! Thermal Absorptance
  0.92,                                   ! Solar Absorptance
  0.92;                                   ! Visible Absorptance

OS:ComponentCost:LineItem,
  {b6a2e37e-dd01-49a3-a3f8-19e32c30cc25}, ! Handle
  Title 24-2008 Nonres 6 Attic Floor,     ! Name
  ,                                       ! Type
  Construction,                           ! Line Item Type
  Title 24-2008 Nonres 6 Attic Floor,     ! Item Name
  ,                                       ! Object End Use Key
  ,                                       ! Quantity {dimensionless}
  31.438,                                 ! Material Cost {$}
  CostPerArea;                            ! Material Cost Units

OS:Material,
  {664df7a1-9e2e-4cec-93be-88dbe95334f6}, ! Handle
  AtticFloor Insulation [50],             ! Name
  MediumRough,                            ! Roughness
  0.0994203,                              ! Thickness {m}
  0.049,                                  ! Conductivity {W/m-K}
  265,                                    ! Density {kg/m3}
  836.8,                                  ! Specific Heat {J/kg-K}
  0.9,                                    ! Thermal Absorptance
  0.7,                                    ! Solar Absorptance
  0.7;                                    ! Visible Absorptance

OS:Construction,
  {120fefeb-45d7-415b-994b-69fcac884546}, ! Handle
  Title 24-2008 Nonres 6 Attic Floor,     ! Name
  ,                                       ! Surface Rendering Name
  {82dd12eb-4acc-405b-a44e-31fe8c02a587}, ! Layer 1
  {664df7a1-9e2e-4cec-93be-88dbe95334f6}, ! Layer 2
  {95642b91-8ca1-4828-b853-fe5c474b4ead}; ! Layer 3

