
OS:Version,
  {ccdb94a5-4340-4def-8624-bb0f8c6710ea}, ! Handle
  0.9.3;                                  ! Version Identifier

OS:Material:NoMass,
  {a479b4ef-57c8-42ae-bc90-efddcf5bc6b9}, ! Handle
  MAT-SHEATH,                             ! Name
  Rough,                                  ! Roughness
  0.36256,                                ! Thermal Resistance {m2-K/W}
  0.9,                                    ! Thermal Absorptance
  0.7,                                    ! Solar Absorptance
  0.7;                                    ! Visible Absorptance

OS:ComponentCost:LineItem,
  {b06b3101-2d84-4c2c-b323-59f3e74f7934}, ! Handle
  90.1-1999 Res B18 Ext Wall Steel-Framed, ! Name
  ,                                       ! Type
  Construction,                           ! Line Item Type
  90.1-1999 Res B18 Ext Wall Steel-Framed, ! Item Name
  ,                                       ! Object End Use Key
  ,                                       ! Quantity {dimensionless}
  94.657,                                 ! Material Cost {$}
  CostPerArea;                            ! Material Cost Units

OS:Construction,
  {c9cd52d2-36c3-48d2-bb3d-8d72235066ae}, ! Handle
  90.1-1999 Res B18 Ext Wall Steel-Framed, ! Name
  ,                                       ! Surface Rendering Name
  {a479b4ef-57c8-42ae-bc90-efddcf5bc6b9}, ! Layer 1
  {0deabc1a-2053-4c3c-9673-2591546c0f3d}, ! Layer 2
  {13b7b252-07d1-4915-9eb1-9f5fcb28c3cb}; ! Layer 3

OS:Material,
  {0deabc1a-2053-4c3c-9673-2591546c0f3d}, ! Handle
  Wall Insulation [10],                   ! Name
  MediumRough,                            ! Roughness
  0.0971136,                              ! Thickness {m}
  0.045,                                  ! Conductivity {W/m-K}
  265,                                    ! Density {kg/m3}
  836.8,                                  ! Specific Heat {J/kg-K}
  0.9,                                    ! Thermal Absorptance
  0.7,                                    ! Solar Absorptance
  0.7;                                    ! Visible Absorptance

OS:Material,
  {13b7b252-07d1-4915-9eb1-9f5fcb28c3cb}, ! Handle
  1/2IN Gypsum,                           ! Name
  Smooth,                                 ! Roughness
  0.01271,                                ! Thickness {m}
  0.16,                                   ! Conductivity {W/m-K}
  784.9,                                  ! Density {kg/m3}
  830,                                    ! Specific Heat {J/kg-K}
  0.9,                                    ! Thermal Absorptance
  0.92,                                   ! Solar Absorptance
  0.92;                                   ! Visible Absorptance

