
OS:Version,
  {978b1bfa-d38e-485c-8208-7da261551f97}, ! Handle
  0.9.3;                                  ! Version Identifier

OS:Construction,
  {edf0bb38-5ac4-4c15-9828-3003bea3b92b}, ! Handle
  90.1-1999 Res B10 Ext Slab Unheated - 8in Slab with Carpet, ! Name
  ,                                       ! Surface Rendering Name
  {1e6746ab-a8e7-4298-bf0a-9f174dd48ffd}, ! Layer 1
  {a5c474bc-cfcc-4d26-a69d-49bcfddf85dc}; ! Layer 2

OS:Material,
  {1e6746ab-a8e7-4298-bf0a-9f174dd48ffd}, ! Handle
  MAT-CC05 8 HW CONCRETE,                 ! Name
  Rough,                                  ! Roughness
  0.20321,                                ! Thickness {m}
  1.311,                                  ! Conductivity {W/m-K}
  2240,                                   ! Density {kg/m3}
  836.8,                                  ! Specific Heat {J/kg-K}
  0.9,                                    ! Thermal Absorptance
  0.7,                                    ! Solar Absorptance
  0.7;                                    ! Visible Absorptance

OS:Material:NoMass,
  {a5c474bc-cfcc-4d26-a69d-49bcfddf85dc}, ! Handle
  CP02 CARPET PAD,                        ! Name
  VeryRough,                              ! Roughness
  0.21648,                                ! Thermal Resistance {m2-K/W}
  0.9,                                    ! Thermal Absorptance
  0.7,                                    ! Solar Absorptance
  0.8;                                    ! Visible Absorptance

OS:ComponentCost:LineItem,
  {ea407047-0f0c-4eaf-b0ee-915bb770855a}, ! Handle
  90.1-1999 Res B10 Ext Slab Unheated - 8in Slab with Carpet, ! Name
  ,                                       ! Type
  Construction,                           ! Line Item Type
  90.1-1999 Res B10 Ext Slab Unheated - 8in Slab with Carpet, ! Item Name
  ,                                       ! Object End Use Key
  ,                                       ! Quantity {dimensionless}
  45.52,                                  ! Material Cost {$}
  CostPerArea;                            ! Material Cost Units

OS:ComponentData,
  {c1bda730-e595-4664-aeb0-17b758777195}, ! Handle
  Component Data 1,                       ! Name
  {11b6466f-0460-4a18-955b-a98b7a19d52f}, ! UUID
  {10b3dfa2-6dfc-4af8-ba62-cef7b518ff69}, ! Version UUID
  1363981206,                             ! Creation Timestamp
  1363981206,                             ! Version Timestamp
  {edf0bb38-5ac4-4c15-9828-3003bea3b92b}, ! Name of Object 1
  {1e6746ab-a8e7-4298-bf0a-9f174dd48ffd}, ! Name of Object 2
  {a5c474bc-cfcc-4d26-a69d-49bcfddf85dc}, ! Name of Object 3
  {ea407047-0f0c-4eaf-b0ee-915bb770855a}; ! Name of Object 4

