
OS:Version,
  {f3894fe5-d0df-4861-8e7c-51a3abdf08f4}, ! Handle
  0.9.3;                                  ! Version Identifier

OS:ComponentCost:LineItem,
  {adcb96d5-30ed-4bc4-9de5-290fadd6a02a}, ! Handle
  189.1-2009 Nonres 4B Window Metal framing all other, ! Name
  ,                                       ! Type
  Construction,                           ! Line Item Type
  189.1-2009 Nonres 4B Window Metal framing all other, ! Item Name
  ,                                       ! Object End Use Key
  ,                                       ! Quantity {dimensionless}
  586.91,                                 ! Material Cost {$}
  CostPerArea;                            ! Material Cost Units

OS:Construction,
  {20d93542-88d3-4c7a-b9b7-3ed20506a6cc}, ! Handle
  189.1-2009 Nonres 4B Window Metal framing all other, ! Name
  ,                                       ! Surface Rendering Name
  {e09798ea-6d68-4de5-b1b2-2d303ef32faa}; ! Layer 1

OS:WindowMaterial:Glazing,
  {e09798ea-6d68-4de5-b1b2-2d303ef32faa}, ! Handle
  Theoretical Glass [207],                ! Name
  SpectralAverage,                        ! Optical Data Type
  ,                                       ! Window Glass Spectral Data Set Name
  0.003,                                  ! Thickness {m}
  0.331051,                               ! Solar Transmittance at Normal Incidence
  0.618949,                               ! Front Side Solar Reflectance at Normal Incidence
  0.618949,                               ! Back Side Solar Reflectance at Normal Incidence
  0.439975,                               ! Visible Transmittance at Normal Incidence
  0.510025,                               ! Front Side Visible Reflectance at Normal Incidence
  0.510025,                               ! Back Side Visible Reflectance at Normal Incidence
  0,                                      ! Infrared Transmittance at Normal Incidence
  0.9,                                    ! Front Side Infrared Hemispherical Emissivity
  0.9,                                    ! Back Side Infrared Hemispherical Emissivity
  0.0133137;                              ! Conductivity {W/m-K}

