
OS:Version,
  {f038441e-e1f9-4a74-ab19-7e3db220f418}, ! Handle
  0.9.3;                                  ! Version Identifier

OS:Construction,
  {e06be0f2-6ffd-42dd-85c6-cf06fe6e2343}, ! Handle
  90.1-1999 Res B2 Ext Wall Wood-Framed and Other, ! Name
  ,                                       ! Surface Rendering Name
  {53c574c9-cade-498f-b6b3-2c64ce851e38}, ! Layer 1
  {24275cb9-e469-4e38-b165-f53ed4707c68}, ! Layer 2
  {d1f5c718-351f-44e3-91ea-4423e8c0c755}; ! Layer 3

OS:Material,
  {53c574c9-cade-498f-b6b3-2c64ce851e38}, ! Handle
  Wood Siding,                            ! Name
  MediumSmooth,                           ! Roughness
  0.01,                                   ! Thickness {m}
  0.11,                                   ! Conductivity {W/m-K}
  544.62,                                 ! Density {kg/m3}
  1210,                                   ! Specific Heat {J/kg-K}
  0.9,                                    ! Thermal Absorptance
  0.78,                                   ! Solar Absorptance
  0.78;                                   ! Visible Absorptance

OS:Material,
  {24275cb9-e469-4e38-b165-f53ed4707c68}, ! Handle
  Wall Insulation [2],                    ! Name
  MediumRough,                            ! Roughness
  0.0746874,                              ! Thickness {m}
  0.045,                                  ! Conductivity {W/m-K}
  265,                                    ! Density {kg/m3}
  836.8,                                  ! Specific Heat {J/kg-K}
  0.9,                                    ! Thermal Absorptance
  0.7,                                    ! Solar Absorptance
  0.7;                                    ! Visible Absorptance

OS:Material,
  {d1f5c718-351f-44e3-91ea-4423e8c0c755}, ! Handle
  1/2IN Gypsum,                           ! Name
  Smooth,                                 ! Roughness
  0.01271,                                ! Thickness {m}
  0.16,                                   ! Conductivity {W/m-K}
  784.9,                                  ! Density {kg/m3}
  830,                                    ! Specific Heat {J/kg-K}
  0.9,                                    ! Thermal Absorptance
  0.92,                                   ! Solar Absorptance
  0.92;                                   ! Visible Absorptance

OS:ComponentCost:LineItem,
  {7d2fd832-38a7-4223-b15b-4c2b53326ced}, ! Handle
  90.1-1999 Res B2 Ext Wall Wood-Framed and Other, ! Name
  ,                                       ! Type
  Construction,                           ! Line Item Type
  90.1-1999 Res B2 Ext Wall Wood-Framed and Other, ! Item Name
  ,                                       ! Object End Use Key
  ,                                       ! Quantity {dimensionless}
  73.056,                                 ! Material Cost {$}
  CostPerArea;                            ! Material Cost Units

