
OS:Version,
  {cc2958b0-8444-43ce-8ea0-56df51e51e55}, ! Handle
  0.9.3;                                  ! Version Identifier

OS:ComponentCost:LineItem,
  {28bdf5ce-9640-493e-b159-9c59a9282963}, ! Handle
  90.1-2001 Nonres B14 Ext Wall Steel-Framed, ! Name
  ,                                       ! Type
  Construction,                           ! Line Item Type
  90.1-2001 Nonres B14 Ext Wall Steel-Framed, ! Item Name
  ,                                       ! Object End Use Key
  ,                                       ! Quantity {dimensionless}
  87.08,                                  ! Material Cost {$}
  CostPerArea;                            ! Material Cost Units

OS:Material,
  {e9af0d55-7963-4801-a976-4480b852db4e}, ! Handle
  Wall Insulation [1],                    ! Name
  MediumRough,                            ! Roughness
  0.0373223,                              ! Thickness {m}
  0.045,                                  ! Conductivity {W/m-K}
  265,                                    ! Density {kg/m3}
  836.8,                                  ! Specific Heat {J/kg-K}
  0.9,                                    ! Thermal Absorptance
  0.7,                                    ! Solar Absorptance
  0.7;                                    ! Visible Absorptance

OS:Material,
  {f913c171-a58e-4033-99c5-9665c31f4ce8}, ! Handle
  1/2IN Gypsum,                           ! Name
  Smooth,                                 ! Roughness
  0.01271,                                ! Thickness {m}
  0.16,                                   ! Conductivity {W/m-K}
  784.9,                                  ! Density {kg/m3}
  830,                                    ! Specific Heat {J/kg-K}
  0.9,                                    ! Thermal Absorptance
  0.92,                                   ! Solar Absorptance
  0.92;                                   ! Visible Absorptance

OS:Material:NoMass,
  {0e126701-ceea-4667-8154-b4ff45222dcc}, ! Handle
  MAT-SHEATH,                             ! Name
  Rough,                                  ! Roughness
  0.36256,                                ! Thermal Resistance {m2-K/W}
  0.9,                                    ! Thermal Absorptance
  0.7,                                    ! Solar Absorptance
  0.7;                                    ! Visible Absorptance

OS:Construction,
  {559b505e-ce11-4b42-b470-db326e638573}, ! Handle
  90.1-2001 Nonres B14 Ext Wall Steel-Framed, ! Name
  ,                                       ! Surface Rendering Name
  {0e126701-ceea-4667-8154-b4ff45222dcc}, ! Layer 1
  {e9af0d55-7963-4801-a976-4480b852db4e}, ! Layer 2
  {f913c171-a58e-4033-99c5-9665c31f4ce8}; ! Layer 3

