
OS:Version,
  {eb052b7a-b6e0-4360-bc12-79532d7e2445}, ! Handle
  0.9.3;                                  ! Version Identifier

OS:Construction,
  {964a981e-a369-4d39-a18a-1dbb27ef1ffd}, ! Handle
  90.1-1999 Res B19 Ext Wall Metal Building, ! Name
  ,                                       ! Surface Rendering Name
  {14dd4077-7839-4cec-a145-f917abee05e6}, ! Layer 1
  {eca3f3be-c3a5-4236-8c47-531f3aaf10f8}, ! Layer 2
  {8780df8b-2bc9-4d9f-8d75-3ba691ff510c}; ! Layer 3

OS:Material,
  {14dd4077-7839-4cec-a145-f917abee05e6}, ! Handle
  Metal Siding,                           ! Name
  Smooth,                                 ! Roughness
  0.0015,                                 ! Thickness {m}
  44.96,                                  ! Conductivity {W/m-K}
  7688.86,                                ! Density {kg/m3}
  410,                                    ! Specific Heat {J/kg-K}
  0.9,                                    ! Thermal Absorptance
  0.2,                                    ! Solar Absorptance
  0.2;                                    ! Visible Absorptance

OS:Material,
  {eca3f3be-c3a5-4236-8c47-531f3aaf10f8}, ! Handle
  Wall Insulation [9],                    ! Name
  MediumRough,                            ! Roughness
  0.128642,                               ! Thickness {m}
  0.045,                                  ! Conductivity {W/m-K}
  265,                                    ! Density {kg/m3}
  836.8,                                  ! Specific Heat {J/kg-K}
  0.9,                                    ! Thermal Absorptance
  0.7,                                    ! Solar Absorptance
  0.7;                                    ! Visible Absorptance

OS:Material,
  {8780df8b-2bc9-4d9f-8d75-3ba691ff510c}, ! Handle
  1/2IN Gypsum,                           ! Name
  Smooth,                                 ! Roughness
  0.01271,                                ! Thickness {m}
  0.16,                                   ! Conductivity {W/m-K}
  784.9,                                  ! Density {kg/m3}
  830,                                    ! Specific Heat {J/kg-K}
  0.9,                                    ! Thermal Absorptance
  0.92,                                   ! Solar Absorptance
  0.92;                                   ! Visible Absorptance

OS:ComponentCost:LineItem,
  {c05aba99-1bae-4ab8-8a77-46bc4a073362}, ! Handle
  90.1-1999 Res B19 Ext Wall Metal Building, ! Name
  ,                                       ! Type
  Construction,                           ! Line Item Type
  90.1-1999 Res B19 Ext Wall Metal Building, ! Item Name
  ,                                       ! Object End Use Key
  ,                                       ! Quantity {dimensionless}
  107.698,                                ! Material Cost {$}
  CostPerArea;                            ! Material Cost Units

