
OS:Version,
  {d4a26ba3-ca30-4811-9207-a1799311b09b}, ! Handle
  0.9.3;                                  ! Version Identifier

OS:Construction,
  {4818f0f1-084c-4b19-b92f-5844d223469b}, ! Handle
  90.1-1999 Res B19 Ext Wall Metal Building, ! Name
  ,                                       ! Surface Rendering Name
  {b3489abc-c776-4279-a73e-5caab4174b4b}, ! Layer 1
  {fd363f22-0f4d-4994-a4c2-ed403e7ccc7c}, ! Layer 2
  {b4697a2b-29e6-44dc-a0f8-e3cde5ee30db}; ! Layer 3

OS:Material,
  {b3489abc-c776-4279-a73e-5caab4174b4b}, ! Handle
  Metal Siding,                           ! Name
  Smooth,                                 ! Roughness
  0.0015,                                 ! Thickness {m}
  44.96,                                  ! Conductivity {W/m-K}
  7688.86,                                ! Density {kg/m3}
  410,                                    ! Specific Heat {J/kg-K}
  0.9,                                    ! Thermal Absorptance
  0.2,                                    ! Solar Absorptance
  0.2;                                    ! Visible Absorptance

OS:Material,
  {fd363f22-0f4d-4994-a4c2-ed403e7ccc7c}, ! Handle
  Wall Insulation [9],                    ! Name
  MediumRough,                            ! Roughness
  0.128642,                               ! Thickness {m}
  0.045,                                  ! Conductivity {W/m-K}
  265,                                    ! Density {kg/m3}
  836.8,                                  ! Specific Heat {J/kg-K}
  0.9,                                    ! Thermal Absorptance
  0.7,                                    ! Solar Absorptance
  0.7;                                    ! Visible Absorptance

OS:Material,
  {b4697a2b-29e6-44dc-a0f8-e3cde5ee30db}, ! Handle
  1/2IN Gypsum,                           ! Name
  Smooth,                                 ! Roughness
  0.01271,                                ! Thickness {m}
  0.16,                                   ! Conductivity {W/m-K}
  784.9,                                  ! Density {kg/m3}
  830,                                    ! Specific Heat {J/kg-K}
  0.9,                                    ! Thermal Absorptance
  0.92,                                   ! Solar Absorptance
  0.92;                                   ! Visible Absorptance

OS:ComponentCost:LineItem,
  {3d6befb9-79af-4b0b-8f93-6f94c8cc7fee}, ! Handle
  90.1-1999 Res B19 Ext Wall Metal Building, ! Name
  ,                                       ! Type
  Construction,                           ! Line Item Type
  90.1-1999 Res B19 Ext Wall Metal Building, ! Item Name
  ,                                       ! Object End Use Key
  ,                                       ! Quantity {dimensionless}
  107.698,                                ! Material Cost {$}
  CostPerArea;                            ! Material Cost Units

OS:ComponentData,
  {a7811cbb-b113-48c1-9c5e-4ac9123eaffb}, ! Handle
  Component Data 1,                       ! Name
  {59ddc933-4f01-4f1d-b003-6fef673340bd}, ! UUID
  {3a27f198-5bc1-4044-b436-e6de62a830dd}, ! Version UUID
  1363981246,                             ! Creation Timestamp
  1363981246,                             ! Version Timestamp
  {4818f0f1-084c-4b19-b92f-5844d223469b}, ! Name of Object 1
  {b3489abc-c776-4279-a73e-5caab4174b4b}, ! Name of Object 2
  {fd363f22-0f4d-4994-a4c2-ed403e7ccc7c}, ! Name of Object 3
  {b4697a2b-29e6-44dc-a0f8-e3cde5ee30db}, ! Name of Object 4
  {3d6befb9-79af-4b0b-8f93-6f94c8cc7fee}; ! Name of Object 5

