
OS:Version,
  {810d3797-0443-46e4-8b8f-f32db043e812}, ! Handle
  0.9.3;                                  ! Version Identifier

OS:ComponentCost:LineItem,
  {20e4e3e4-0bc6-40f8-8ca1-dd3c30ecfdef}, ! Handle
  90.1-1999 Res B6 Roof Metal Building,   ! Name
  ,                                       ! Type
  Construction,                           ! Line Item Type
  90.1-1999 Res B6 Roof Metal Building,   ! Item Name
  ,                                       ! Object End Use Key
  ,                                       ! Quantity {dimensionless}
  38.206,                                 ! Material Cost {$}
  CostPerArea;                            ! Material Cost Units

OS:Material,
  {0de64461-408f-4655-b509-e8addd1ec1af}, ! Handle
  Roof Insulation [1],                    ! Name
  MediumRough,                            ! Roughness
  0.123533,                               ! Thickness {m}
  0.049,                                  ! Conductivity {W/m-K}
  265,                                    ! Density {kg/m3}
  836.8,                                  ! Specific Heat {J/kg-K}
  0.9,                                    ! Thermal Absorptance
  0.7,                                    ! Solar Absorptance
  0.7;                                    ! Visible Absorptance

OS:Construction,
  {8fa09652-623c-4549-aa13-4af8652f507c}, ! Handle
  90.1-1999 Res B6 Roof Metal Building,   ! Name
  ,                                       ! Surface Rendering Name
  {5b65fc94-be6e-4a3a-bae6-397294a6148f}, ! Layer 1
  {0de64461-408f-4655-b509-e8addd1ec1af}; ! Layer 2

OS:Material,
  {5b65fc94-be6e-4a3a-bae6-397294a6148f}, ! Handle
  Metal Roofing,                          ! Name
  MediumSmooth,                           ! Roughness
  0.001524,                               ! Thickness {m}
  45.006,                                 ! Conductivity {W/m-K}
  7680,                                   ! Density {kg/m3}
  418.4,                                  ! Specific Heat {J/kg-K}
  0.9,                                    ! Thermal Absorptance
  0.7,                                    ! Solar Absorptance
  0.3;                                    ! Visible Absorptance

