
OS:Version,
  {924b3f26-7944-4abc-ae15-eebec6d59429}, !- Handle
  1.0.6;                                  !- Version Identifier

OS:WindowMaterial:Glazing,
  {05e4da0e-d9f6-4152-9c25-c31d56f98416}, !- Handle
  189.1-2011 NONRES 8A METAL FRAMING ENTRANCE DOOR THEORETICAL GLAZING, !- Name
  SpectralAverage,                        !- Optical Data Type
  ,                                       !- Window Glass Spectral Data Set Name
  0.002,                                  !- Thickness {m}
  0.32248,                                !- Solar Transmittance at Normal Incidence
  0.31206,                                !- Front Side Solar Reflectance at Normal Incidence
  0.31206,                                !- Back Side Solar Reflectance at Normal Incidence
  0.32248,                                !- Visible Transmittance at Normal Incidence
  0.31206,                                !- Front Side Visible Reflectance at Normal Incidence
  0.31206,                                !- Back Side Visible Reflectance at Normal Incidence
  0,                                      !- Infrared Transmittance at Normal Incidence
  0.84,                                   !- Front Side Infrared Hemispherical Emissivity
  0.84,                                   !- Back Side Infrared Hemispherical Emissivity
  0.02398,                                !- Conductivity {W/m-K}
  1,                                      !- Dirt Correction Factor for Solar and Visible Transmittance
  No;                                     !- Solar Diffusing

OS:Construction,
  {179cf633-9862-4f91-a554-a6c04967aa04}, !- Handle
  189.1-2011 NONRES 8 METAL FRAMING ENTRANCE DOOR, !- Name
  ,                                       !- Surface Rendering Name
  {05e4da0e-d9f6-4152-9c25-c31d56f98416}; !- Layer 1

