
OS:Version,
  {2892a465-1b7d-459d-aba1-d8312aaffa99}, ! Handle
  0.9.3;                                  ! Version Identifier

OS:Construction,
  {cf2a8f8a-4d89-4409-9cb8-59b9c3691af3}, ! Handle
  90.1-2001 Nonres B25 Int Wall,          ! Name
  ,                                       ! Surface Rendering Name
  {69399249-fdfe-4854-aecc-4f4e55c86fb5}, ! Layer 1
  {69399249-fdfe-4854-aecc-4f4e55c86fb5}; ! Layer 2

OS:Material,
  {69399249-fdfe-4854-aecc-4f4e55c86fb5}, ! Handle
  GP01 1/2 GYPSUM,                        ! Name
  Smooth,                                 ! Roughness
  0.01271,                                ! Thickness {m}
  0.16,                                   ! Conductivity {W/m-K}
  800,                                    ! Density {kg/m3}
  1090,                                   ! Specific Heat {J/kg-K}
  0.9,                                    ! Thermal Absorptance
  0.7,                                    ! Solar Absorptance
  0.5;                                    ! Visible Absorptance

OS:ComponentCost:LineItem,
  {ad4fc6da-bf46-4d88-b164-ffa1f1bc934d}, ! Handle
  90.1-2001 Nonres B25 Int Wall,          ! Name
  ,                                       ! Type
  Construction,                           ! Line Item Type
  90.1-2001 Nonres B25 Int Wall,          ! Item Name
  ,                                       ! Object End Use Key
  ,                                       ! Quantity {dimensionless}
  0,                                      ! Material Cost {$}
  CostPerArea;                            ! Material Cost Units

OS:ComponentData,
  {062f0e24-0433-41ba-9759-34548a121a7c}, ! Handle
  Component Data 1,                       ! Name
  {85f46e19-9bd3-4938-bfa8-1f6a798adb21}, ! UUID
  {26693526-650a-4bd7-a2e8-2a40a8262b3e}, ! Version UUID
  1363981430,                             ! Creation Timestamp
  1363981430,                             ! Version Timestamp
  {cf2a8f8a-4d89-4409-9cb8-59b9c3691af3}, ! Name of Object 1
  {69399249-fdfe-4854-aecc-4f4e55c86fb5}, ! Name of Object 2
  {ad4fc6da-bf46-4d88-b164-ffa1f1bc934d}; ! Name of Object 3

