
OS:Version,
  {38f81f66-2824-4266-a084-694f50b0efe5}, ! Handle
  0.9.3;                                  ! Version Identifier

OS:ComponentCost:LineItem,
  {0c50a077-e034-44df-b7f7-8c6a4d14d7c9}, ! Handle
  90.1-2001 Nonres B25 Int Wall,          ! Name
  ,                                       ! Type
  Construction,                           ! Line Item Type
  90.1-2001 Nonres B25 Int Wall,          ! Item Name
  ,                                       ! Object End Use Key
  ,                                       ! Quantity {dimensionless}
  0,                                      ! Material Cost {$}
  CostPerArea;                            ! Material Cost Units

OS:Material,
  {628ce123-4292-4401-9a04-bfdcc5666e8d}, ! Handle
  GP01 1/2 GYPSUM,                        ! Name
  Smooth,                                 ! Roughness
  0.01271,                                ! Thickness {m}
  0.16,                                   ! Conductivity {W/m-K}
  800,                                    ! Density {kg/m3}
  1090,                                   ! Specific Heat {J/kg-K}
  0.9,                                    ! Thermal Absorptance
  0.7,                                    ! Solar Absorptance
  0.5;                                    ! Visible Absorptance

OS:Construction,
  {13575606-863d-455c-9309-28049f666026}, ! Handle
  90.1-2001 Nonres B25 Int Wall,          ! Name
  ,                                       ! Surface Rendering Name
  {628ce123-4292-4401-9a04-bfdcc5666e8d}, ! Layer 1
  {628ce123-4292-4401-9a04-bfdcc5666e8d}; ! Layer 2

OS:Material,
  {e48c02f1-94d5-46d0-842f-3a0f619e237f}, ! Handle
  GP01 1/2 GYPSUM 1,                      ! Name
  Smooth,                                 ! Roughness
  0.01271,                                ! Thickness {m}
  0.16,                                   ! Conductivity {W/m-K}
  800,                                    ! Density {kg/m3}
  1090,                                   ! Specific Heat {J/kg-K}
  0.9,                                    ! Thermal Absorptance
  0.7,                                    ! Solar Absorptance
  0.5;                                    ! Visible Absorptance

