
OS:Version,
  {1f204de1-eecf-4bfa-ab16-5f381d2319af}, ! Handle
  0.9.3;                                  ! Version Identifier

OS:Construction,
  {782581b6-ce4b-479f-94ce-87a582aba10b}, ! Handle
  90.1-2007 Nonres 1A Roof Attic and Other, ! Name
  ,                                       ! Surface Rendering Name
  {8a5b0e7e-71b1-4eb0-a65d-be35b5e4e3b2}, ! Layer 1
  {383ad2af-66e5-4225-b460-2f41783a3534}, ! Layer 2
  {eadc7283-5360-45d4-878f-a6fe511d6ce3}, ! Layer 3
  {24c54833-282b-4f13-9361-c0b49f70a3b3}; ! Layer 4

OS:Material,
  {8a5b0e7e-71b1-4eb0-a65d-be35b5e4e3b2}, ! Handle
  Wood Shingles,                          ! Name
  VeryRough,                              ! Roughness
  0.0178,                                 ! Thickness {m}
  0.115,                                  ! Conductivity {W/m-K}
  513,                                    ! Density {kg/m3}
  1255,                                   ! Specific Heat {J/kg-K}
  0.9,                                    ! Thermal Absorptance
  0.78,                                   ! Solar Absorptance
  0.78;                                   ! Visible Absorptance

OS:Material,
  {383ad2af-66e5-4225-b460-2f41783a3534}, ! Handle
  1IN Wood Decking,                       ! Name
  MediumSmooth,                           ! Roughness
  0.0254,                                 ! Thickness {m}
  0.1211,                                 ! Conductivity {W/m-K}
  593,                                    ! Density {kg/m3}
  2510,                                   ! Specific Heat {J/kg-K}
  0.9,                                    ! Thermal Absorptance
  0.78,                                   ! Solar Absorptance
  0.78;                                   ! Visible Absorptance

OS:Material,
  {eadc7283-5360-45d4-878f-a6fe511d6ce3}, ! Handle
  Roof Insulation [13],                   ! Name
  MediumRough,                            ! Roughness
  0.222698,                               ! Thickness {m}
  0.049,                                  ! Conductivity {W/m-K}
  265,                                    ! Density {kg/m3}
  836.8,                                  ! Specific Heat {J/kg-K}
  0.9,                                    ! Thermal Absorptance
  0.7,                                    ! Solar Absorptance
  0.7;                                    ! Visible Absorptance

OS:Material,
  {24c54833-282b-4f13-9361-c0b49f70a3b3}, ! Handle
  1/2IN Gypsum,                           ! Name
  Smooth,                                 ! Roughness
  0.01271,                                ! Thickness {m}
  0.16,                                   ! Conductivity {W/m-K}
  784.9,                                  ! Density {kg/m3}
  830,                                    ! Specific Heat {J/kg-K}
  0.9,                                    ! Thermal Absorptance
  0.92,                                   ! Solar Absorptance
  0.92;                                   ! Visible Absorptance

OS:ComponentCost:LineItem,
  {df8b2c63-c5e1-4a97-b0cd-d28f39dc0ef4}, ! Handle
  90.1-2007 Nonres 1A Roof Attic and Other, ! Name
  ,                                       ! Type
  Construction,                           ! Line Item Type
  90.1-2007 Nonres 1A Roof Attic and Other, ! Item Name
  ,                                       ! Object End Use Key
  ,                                       ! Quantity {dimensionless}
  33.401,                                 ! Material Cost {$}
  CostPerArea;                            ! Material Cost Units

