
OS:Version,
  {7f2e0c27-1f4d-4494-b0e2-965e4e146fc3}, ! Handle
  0.9.3;                                  ! Version Identifier

OS:Construction,
  {98828fef-b2d2-4830-b897-257be888acfc}, ! Handle
  90.1-1999 Res B8 Int Wall,              ! Name
  ,                                       ! Surface Rendering Name
  {7184492b-190d-41bb-9060-68efc224e426}, ! Layer 1
  {7184492b-190d-41bb-9060-68efc224e426}; ! Layer 2

OS:Material,
  {7184492b-190d-41bb-9060-68efc224e426}, ! Handle
  GP01 1/2 GYPSUM,                        ! Name
  Smooth,                                 ! Roughness
  0.01271,                                ! Thickness {m}
  0.16,                                   ! Conductivity {W/m-K}
  800,                                    ! Density {kg/m3}
  1090,                                   ! Specific Heat {J/kg-K}
  0.9,                                    ! Thermal Absorptance
  0.7,                                    ! Solar Absorptance
  0.5;                                    ! Visible Absorptance

OS:Material,
  {aa1c2be8-5443-4e50-81d2-2812cc1cca1a}, ! Handle
  GP01 1/2 GYPSUM 1,                      ! Name
  Smooth,                                 ! Roughness
  0.01271,                                ! Thickness {m}
  0.16,                                   ! Conductivity {W/m-K}
  800,                                    ! Density {kg/m3}
  1090,                                   ! Specific Heat {J/kg-K}
  0.9,                                    ! Thermal Absorptance
  0.7,                                    ! Solar Absorptance
  0.5;                                    ! Visible Absorptance

OS:ComponentCost:LineItem,
  {107bb59d-1e2a-405c-b0af-bd31024f7c12}, ! Handle
  90.1-1999 Res B8 Int Wall,              ! Name
  ,                                       ! Type
  Construction,                           ! Line Item Type
  90.1-1999 Res B8 Int Wall,              ! Item Name
  ,                                       ! Object End Use Key
  ,                                       ! Quantity {dimensionless}
  0,                                      ! Material Cost {$}
  CostPerArea;                            ! Material Cost Units

