
OS:Version,
  {8ec0dc84-3af9-4986-88e7-64a983c6cbe0}, ! Handle
  0.9.3;                                  ! Version Identifier

OS:Material,
  {8bd63fc8-71e7-4713-883a-7495a95ab2e7}, ! Handle
  Roof Membrane,                          ! Name
  VeryRough,                              ! Roughness
  0.0095,                                 ! Thickness {m}
  0.16,                                   ! Conductivity {W/m-K}
  1121.29,                                ! Density {kg/m3}
  1460,                                   ! Specific Heat {J/kg-K}
  0.9,                                    ! Thermal Absorptance
  0.7,                                    ! Solar Absorptance
  0.7;                                    ! Visible Absorptance

OS:ComponentCost:LineItem,
  {4fe16edc-0d18-476b-a261-560b8dc0582d}, ! Handle
  90.1-2004 Nonres 3C Roof IEAD,          ! Name
  ,                                       ! Type
  Construction,                           ! Line Item Type
  90.1-2004 Nonres 3C Roof IEAD,          ! Item Name
  ,                                       ! Object End Use Key
  ,                                       ! Quantity {dimensionless}
  49.208,                                 ! Material Cost {$}
  CostPerArea;                            ! Material Cost Units

OS:Construction,
  {3a4f8d2d-2159-489f-968e-75dc1cf62f27}, ! Handle
  90.1-2004 Nonres 3C Roof IEAD,          ! Name
  ,                                       ! Surface Rendering Name
  {8bd63fc8-71e7-4713-883a-7495a95ab2e7}, ! Layer 1
  {5ef970fb-11cd-46e4-be35-9d759db06084}, ! Layer 2
  {223df78d-4882-43c0-8d19-e419603fe93a}; ! Layer 3

OS:Material,
  {5ef970fb-11cd-46e4-be35-9d759db06084}, ! Handle
  Roof Insulation,                        ! Name
  MediumRough,                            ! Roughness
  0.124958,                               ! Thickness {m}
  0.049,                                  ! Conductivity {W/m-K}
  265,                                    ! Density {kg/m3}
  836.8,                                  ! Specific Heat {J/kg-K}
  0.9,                                    ! Thermal Absorptance
  0.7,                                    ! Solar Absorptance
  0.7;                                    ! Visible Absorptance

OS:Material,
  {223df78d-4882-43c0-8d19-e419603fe93a}, ! Handle
  Metal Decking,                          ! Name
  MediumSmooth,                           ! Roughness
  0.001524,                               ! Thickness {m}
  45.006,                                 ! Conductivity {W/m-K}
  7680,                                   ! Density {kg/m3}
  418.4,                                  ! Specific Heat {J/kg-K}
  0.9,                                    ! Thermal Absorptance
  0.7,                                    ! Solar Absorptance
  0.3;                                    ! Visible Absorptance

