
OS:Version,
  {8ee8c504-1600-449f-99e4-4871e2f218d6}, ! Handle
  0.9.3;                                  ! Version Identifier

OS:Construction,
  {9e5e2155-c27c-4bed-ad84-2a251faf3c95}, ! Handle
  90.1-2004 Nonres 3C Roof IEAD,          ! Name
  ,                                       ! Surface Rendering Name
  {d4ca8c66-b392-4f2d-8ce3-63fd071bf9e1}, ! Layer 1
  {e22f95d6-08a1-4b20-801f-bd060078a23c}, ! Layer 2
  {51d97c41-b3f8-4b98-88e1-145efe78bb60}; ! Layer 3

OS:Material,
  {d4ca8c66-b392-4f2d-8ce3-63fd071bf9e1}, ! Handle
  Roof Membrane,                          ! Name
  VeryRough,                              ! Roughness
  0.0095,                                 ! Thickness {m}
  0.16,                                   ! Conductivity {W/m-K}
  1121.29,                                ! Density {kg/m3}
  1460,                                   ! Specific Heat {J/kg-K}
  0.9,                                    ! Thermal Absorptance
  0.7,                                    ! Solar Absorptance
  0.7;                                    ! Visible Absorptance

OS:Material,
  {e22f95d6-08a1-4b20-801f-bd060078a23c}, ! Handle
  Roof Insulation,                        ! Name
  MediumRough,                            ! Roughness
  0.124958,                               ! Thickness {m}
  0.049,                                  ! Conductivity {W/m-K}
  265,                                    ! Density {kg/m3}
  836.8,                                  ! Specific Heat {J/kg-K}
  0.9,                                    ! Thermal Absorptance
  0.7,                                    ! Solar Absorptance
  0.7;                                    ! Visible Absorptance

OS:Material,
  {51d97c41-b3f8-4b98-88e1-145efe78bb60}, ! Handle
  Metal Decking,                          ! Name
  MediumSmooth,                           ! Roughness
  0.001524,                               ! Thickness {m}
  45.006,                                 ! Conductivity {W/m-K}
  7680,                                   ! Density {kg/m3}
  418.4,                                  ! Specific Heat {J/kg-K}
  0.9,                                    ! Thermal Absorptance
  0.7,                                    ! Solar Absorptance
  0.3;                                    ! Visible Absorptance

OS:ComponentCost:LineItem,
  {586f81d4-23cc-4285-9b89-8656f73d92de}, ! Handle
  90.1-2004 Nonres 3C Roof IEAD,          ! Name
  ,                                       ! Type
  Construction,                           ! Line Item Type
  90.1-2004 Nonres 3C Roof IEAD,          ! Item Name
  ,                                       ! Object End Use Key
  ,                                       ! Quantity {dimensionless}
  49.208,                                 ! Material Cost {$}
  CostPerArea;                            ! Material Cost Units

OS:ComponentData,
  {3b7a8540-77c4-4997-8464-8792b4519aef}, ! Handle
  Component Data 1,                       ! Name
  {06af3de9-3a3c-4852-be89-13f51ffd8fe8}, ! UUID
  {e42562c6-bbc3-49c5-9b5f-fbaec360db5d}, ! Version UUID
  1363981653,                             ! Creation Timestamp
  1363981653,                             ! Version Timestamp
  {9e5e2155-c27c-4bed-ad84-2a251faf3c95}, ! Name of Object 1
  {d4ca8c66-b392-4f2d-8ce3-63fd071bf9e1}, ! Name of Object 2
  {e22f95d6-08a1-4b20-801f-bd060078a23c}, ! Name of Object 3
  {51d97c41-b3f8-4b98-88e1-145efe78bb60}, ! Name of Object 4
  {586f81d4-23cc-4285-9b89-8656f73d92de}; ! Name of Object 5

