
OS:Version,
  {36bc21ff-5f9e-4e15-be1c-620cd9fa4524}, ! Handle
  0.9.3;                                  ! Version Identifier

OS:Construction,
  {d3e0d4c4-d798-4479-9cc9-2f397d09cbb6}, ! Handle
  90.1-2004 Nonres 3C Roof Attic and Other, ! Name
  ,                                       ! Surface Rendering Name
  {87abfd94-ac23-499c-8a68-31df8ed3480f}, ! Layer 1
  {928b656c-004c-4ae5-bce9-4d81736e2754}, ! Layer 2
  {f5501453-abb1-4016-8649-3b4fc086d6bc}, ! Layer 3
  {35712293-a556-45a4-b65d-b13b11001062}; ! Layer 4

OS:Material,
  {87abfd94-ac23-499c-8a68-31df8ed3480f}, ! Handle
  Wood Shingles,                          ! Name
  VeryRough,                              ! Roughness
  0.0178,                                 ! Thickness {m}
  0.115,                                  ! Conductivity {W/m-K}
  513,                                    ! Density {kg/m3}
  1255,                                   ! Specific Heat {J/kg-K}
  0.9,                                    ! Thermal Absorptance
  0.78,                                   ! Solar Absorptance
  0.78;                                   ! Visible Absorptance

OS:Material,
  {928b656c-004c-4ae5-bce9-4d81736e2754}, ! Handle
  1IN Wood Decking,                       ! Name
  MediumSmooth,                           ! Roughness
  0.0254,                                 ! Thickness {m}
  0.1211,                                 ! Conductivity {W/m-K}
  593,                                    ! Density {kg/m3}
  2510,                                   ! Specific Heat {J/kg-K}
  0.9,                                    ! Thermal Absorptance
  0.78,                                   ! Solar Absorptance
  0.78;                                   ! Visible Absorptance

OS:Material,
  {f5501453-abb1-4016-8649-3b4fc086d6bc}, ! Handle
  Roof Insulation [2],                    ! Name
  MediumRough,                            ! Roughness
  0.221604,                               ! Thickness {m}
  0.049,                                  ! Conductivity {W/m-K}
  265,                                    ! Density {kg/m3}
  836.8,                                  ! Specific Heat {J/kg-K}
  0.9,                                    ! Thermal Absorptance
  0.7,                                    ! Solar Absorptance
  0.7;                                    ! Visible Absorptance

OS:Material,
  {35712293-a556-45a4-b65d-b13b11001062}, ! Handle
  1/2IN Gypsum,                           ! Name
  Smooth,                                 ! Roughness
  0.01271,                                ! Thickness {m}
  0.16,                                   ! Conductivity {W/m-K}
  784.9,                                  ! Density {kg/m3}
  830,                                    ! Specific Heat {J/kg-K}
  0.9,                                    ! Thermal Absorptance
  0.92,                                   ! Solar Absorptance
  0.92;                                   ! Visible Absorptance

OS:ComponentCost:LineItem,
  {140caf51-85c9-4516-a04e-90e8982b331d}, ! Handle
  90.1-2004 Nonres 3C Roof Attic and Other, ! Name
  ,                                       ! Type
  Construction,                           ! Line Item Type
  90.1-2004 Nonres 3C Roof Attic and Other, ! Item Name
  ,                                       ! Object End Use Key
  ,                                       ! Quantity {dimensionless}
  33.39,                                  ! Material Cost {$}
  CostPerArea;                            ! Material Cost Units

OS:ComponentData,
  {65f99ba5-6408-4714-8dd6-a2f041cf2fe2}, ! Handle
  Component Data 1,                       ! Name
  {7f149ff9-73b8-4196-b3fe-daf7f3c19ce5}, ! UUID
  {ef571b79-aa58-4b67-ba56-e061a97eee58}, ! Version UUID
  1363981654,                             ! Creation Timestamp
  1363981654,                             ! Version Timestamp
  {d3e0d4c4-d798-4479-9cc9-2f397d09cbb6}, ! Name of Object 1
  {87abfd94-ac23-499c-8a68-31df8ed3480f}, ! Name of Object 2
  {928b656c-004c-4ae5-bce9-4d81736e2754}, ! Name of Object 3
  {f5501453-abb1-4016-8649-3b4fc086d6bc}, ! Name of Object 4
  {35712293-a556-45a4-b65d-b13b11001062}, ! Name of Object 5
  {140caf51-85c9-4516-a04e-90e8982b331d}; ! Name of Object 6

