
OS:Version,
  {a6346ee7-37d9-40c5-ac1a-05c1e2017bb5}, ! Handle
  0.9.3;                                  ! Version Identifier

OS:Material,
  {5e5b720e-4b4b-47a5-af37-3bd42a601fbb}, ! Handle
  Wood Shingles,                          ! Name
  VeryRough,                              ! Roughness
  0.0178,                                 ! Thickness {m}
  0.115,                                  ! Conductivity {W/m-K}
  513,                                    ! Density {kg/m3}
  1255,                                   ! Specific Heat {J/kg-K}
  0.9,                                    ! Thermal Absorptance
  0.78,                                   ! Solar Absorptance
  0.78;                                   ! Visible Absorptance

OS:Material,
  {bf65ac82-a783-4257-b6e3-6fceca7bce61}, ! Handle
  1/2IN Gypsum,                           ! Name
  Smooth,                                 ! Roughness
  0.01271,                                ! Thickness {m}
  0.16,                                   ! Conductivity {W/m-K}
  784.9,                                  ! Density {kg/m3}
  830,                                    ! Specific Heat {J/kg-K}
  0.9,                                    ! Thermal Absorptance
  0.92,                                   ! Solar Absorptance
  0.92;                                   ! Visible Absorptance

OS:ComponentCost:LineItem,
  {d29704c5-5ff8-4f26-8d9d-ff081ca74499}, ! Handle
  90.1-2004 Nonres 3C Roof Attic and Other, ! Name
  ,                                       ! Type
  Construction,                           ! Line Item Type
  90.1-2004 Nonres 3C Roof Attic and Other, ! Item Name
  ,                                       ! Object End Use Key
  ,                                       ! Quantity {dimensionless}
  33.39,                                  ! Material Cost {$}
  CostPerArea;                            ! Material Cost Units

OS:Material,
  {40b47ba6-5634-4eee-8603-2d5d7a7443ca}, ! Handle
  Roof Insulation [2],                    ! Name
  MediumRough,                            ! Roughness
  0.221604,                               ! Thickness {m}
  0.049,                                  ! Conductivity {W/m-K}
  265,                                    ! Density {kg/m3}
  836.8,                                  ! Specific Heat {J/kg-K}
  0.9,                                    ! Thermal Absorptance
  0.7,                                    ! Solar Absorptance
  0.7;                                    ! Visible Absorptance

OS:Construction,
  {a380c4c2-63a8-419f-8805-b9732fd06f35}, ! Handle
  90.1-2004 Nonres 3C Roof Attic and Other, ! Name
  ,                                       ! Surface Rendering Name
  {5e5b720e-4b4b-47a5-af37-3bd42a601fbb}, ! Layer 1
  {57c8698c-a621-466c-a76b-1358c0b9c56f}, ! Layer 2
  {40b47ba6-5634-4eee-8603-2d5d7a7443ca}, ! Layer 3
  {bf65ac82-a783-4257-b6e3-6fceca7bce61}; ! Layer 4

OS:Material,
  {57c8698c-a621-466c-a76b-1358c0b9c56f}, ! Handle
  1IN Wood Decking,                       ! Name
  MediumSmooth,                           ! Roughness
  0.0254,                                 ! Thickness {m}
  0.1211,                                 ! Conductivity {W/m-K}
  593,                                    ! Density {kg/m3}
  2510,                                   ! Specific Heat {J/kg-K}
  0.9,                                    ! Thermal Absorptance
  0.78,                                   ! Solar Absorptance
  0.78;                                   ! Visible Absorptance

