
OS:Version,
  {f29f8538-b4b5-4d3e-b881-abd88ffa66e3}, ! Handle
  0.9.3;                                  ! Version Identifier

OS:Construction,
  {3fa320c0-f281-4636-997d-4c6a09618a01}, ! Handle
  90.1-2001 Res B12 Roof Attic and Other, ! Name
  ,                                       ! Surface Rendering Name
  {6fa08680-ba01-40cf-ada1-b52d2b1829cb}, ! Layer 1
  {f4cb06ee-6d19-4536-b59b-d78268457b72}, ! Layer 2
  {f67cd221-bf49-452b-9dce-1450d4373fb7}, ! Layer 3
  {04ccd9d8-6fc6-4a31-b52f-e4df52d0b9dc}; ! Layer 4

OS:Material,
  {6fa08680-ba01-40cf-ada1-b52d2b1829cb}, ! Handle
  Wood Shingles,                          ! Name
  VeryRough,                              ! Roughness
  0.0178,                                 ! Thickness {m}
  0.115,                                  ! Conductivity {W/m-K}
  513,                                    ! Density {kg/m3}
  1255,                                   ! Specific Heat {J/kg-K}
  0.9,                                    ! Thermal Absorptance
  0.78,                                   ! Solar Absorptance
  0.78;                                   ! Visible Absorptance

OS:Material,
  {f4cb06ee-6d19-4536-b59b-d78268457b72}, ! Handle
  1IN Wood Decking,                       ! Name
  MediumSmooth,                           ! Roughness
  0.0254,                                 ! Thickness {m}
  0.1211,                                 ! Conductivity {W/m-K}
  593,                                    ! Density {kg/m3}
  2510,                                   ! Specific Heat {J/kg-K}
  0.9,                                    ! Thermal Absorptance
  0.78,                                   ! Solar Absorptance
  0.78;                                   ! Visible Absorptance

OS:Material,
  {f67cd221-bf49-452b-9dce-1450d4373fb7}, ! Handle
  Roof Insulation [2],                    ! Name
  MediumRough,                            ! Roughness
  0.221604,                               ! Thickness {m}
  0.049,                                  ! Conductivity {W/m-K}
  265,                                    ! Density {kg/m3}
  836.8,                                  ! Specific Heat {J/kg-K}
  0.9,                                    ! Thermal Absorptance
  0.7,                                    ! Solar Absorptance
  0.7;                                    ! Visible Absorptance

OS:Material,
  {04ccd9d8-6fc6-4a31-b52f-e4df52d0b9dc}, ! Handle
  1/2IN Gypsum,                           ! Name
  Smooth,                                 ! Roughness
  0.01271,                                ! Thickness {m}
  0.16,                                   ! Conductivity {W/m-K}
  784.9,                                  ! Density {kg/m3}
  830,                                    ! Specific Heat {J/kg-K}
  0.9,                                    ! Thermal Absorptance
  0.92,                                   ! Solar Absorptance
  0.92;                                   ! Visible Absorptance

OS:ComponentCost:LineItem,
  {77a84b20-5c8d-4631-8f79-827682144f25}, ! Handle
  90.1-2001 Res B12 Roof Attic and Other, ! Name
  ,                                       ! Type
  Construction,                           ! Line Item Type
  90.1-2001 Res B12 Roof Attic and Other, ! Item Name
  ,                                       ! Object End Use Key
  ,                                       ! Quantity {dimensionless}
  33.39,                                  ! Material Cost {$}
  CostPerArea;                            ! Material Cost Units

