
OS:Version,
  {ed1d29e2-5e5f-4799-a374-b1bce59caee8}, ! Handle
  0.9.3;                                  ! Version Identifier

OS:Material,
  {28bb768b-d6db-4763-8cfa-4ce0ad569de1}, ! Handle
  1/2IN Gypsum,                           ! Name
  Smooth,                                 ! Roughness
  0.01271,                                ! Thickness {m}
  0.16,                                   ! Conductivity {W/m-K}
  784.9,                                  ! Density {kg/m3}
  830,                                    ! Specific Heat {J/kg-K}
  0.9,                                    ! Thermal Absorptance
  0.92,                                   ! Solar Absorptance
  0.92;                                   ! Visible Absorptance

OS:Material,
  {378e0303-8b00-4b25-a9fe-74607d31e6fd}, ! Handle
  Wall Insulation,                        ! Name
  MediumRough,                            ! Roughness
  0.0598725,                              ! Thickness {m}
  0.045,                                  ! Conductivity {W/m-K}
  265,                                    ! Density {kg/m3}
  836.8,                                  ! Specific Heat {J/kg-K}
  0.9,                                    ! Thermal Absorptance
  0.7,                                    ! Solar Absorptance
  0.7;                                    ! Visible Absorptance

OS:Construction,
  {9a787f5c-ace3-48ab-998c-ae4eb04d8736}, ! Handle
  90.1-2004 Nonres 2A Ext Wall Metal Building, ! Name
  ,                                       ! Surface Rendering Name
  {622c1de6-b728-425c-baf3-f9ebab092ced}, ! Layer 1
  {378e0303-8b00-4b25-a9fe-74607d31e6fd}, ! Layer 2
  {28bb768b-d6db-4763-8cfa-4ce0ad569de1}; ! Layer 3

OS:Material,
  {622c1de6-b728-425c-baf3-f9ebab092ced}, ! Handle
  Metal Siding,                           ! Name
  Smooth,                                 ! Roughness
  0.0015,                                 ! Thickness {m}
  44.96,                                  ! Conductivity {W/m-K}
  7688.86,                                ! Density {kg/m3}
  410,                                    ! Specific Heat {J/kg-K}
  0.9,                                    ! Thermal Absorptance
  0.2,                                    ! Solar Absorptance
  0.2;                                    ! Visible Absorptance

OS:ComponentCost:LineItem,
  {2e72b992-d5c3-48f1-85d4-bfda1641c192}, ! Handle
  90.1-2004 Nonres 2A Ext Wall Metal Building, ! Name
  ,                                       ! Type
  Construction,                           ! Line Item Type
  90.1-2004 Nonres 2A Ext Wall Metal Building, ! Item Name
  ,                                       ! Object End Use Key
  ,                                       ! Quantity {dimensionless}
  98.78,                                  ! Material Cost {$}
  CostPerArea;                            ! Material Cost Units

