
OS:Version,
  {a4bd8bc2-1474-4118-a9aa-9967fd9924fc}, ! Handle
  0.9.3;                                  ! Version Identifier

OS:Construction,
  {e72d0314-3fe7-46f5-a86c-74fc3e9ada00}, ! Handle
  90.1 Windows Window Fixed 2146 Mtl-HptMpr-Std-ClrSue, ! Name
  ,                                       ! Surface Rendering Name
  {3476c464-df81-4378-928c-4644ddc3fe04}; ! Layer 1

OS:WindowMaterial:Glazing,
  {3476c464-df81-4378-928c-4644ddc3fe04}, ! Handle
  Theoretical Glass [516],                ! Name
  SpectralAverage,                        ! Optical Data Type
  ,                                       ! Window Glass Spectral Data Set Name
  0.003,                                  ! Thickness {m}
  0.223775,                               ! Solar Transmittance at Normal Incidence
  0.726225,                               ! Front Side Solar Reflectance at Normal Incidence
  0.726225,                               ! Back Side Solar Reflectance at Normal Incidence
  0.301356,                               ! Visible Transmittance at Normal Incidence
  0.648644,                               ! Front Side Visible Reflectance at Normal Incidence
  0.648644,                               ! Back Side Visible Reflectance at Normal Incidence
  0,                                      ! Infrared Transmittance at Normal Incidence
  0.9,                                    ! Front Side Infrared Hemispherical Emissivity
  0.9,                                    ! Back Side Infrared Hemispherical Emissivity
  0.0198691;                              ! Conductivity {W/m-K}

OS:ComponentCost:LineItem,
  {7bd834f5-4180-4e4b-b412-6c2a762c0155}, ! Handle
  90.1 Windows Window Fixed 2146 Mtl-HptMpr-Std-ClrSue, ! Name
  ,                                       ! Type
  Construction,                           ! Line Item Type
  90.1 Windows Window Fixed 2146 Mtl-HptMpr-Std-ClrSue, ! Item Name
  ,                                       ! Object End Use Key
  ,                                       ! Quantity {dimensionless}
  0,                                      ! Material Cost {$}
  CostPerArea;                            ! Material Cost Units

OS:ComponentData,
  {75150a51-d07f-4c8b-a793-b8bbc16fa8d2}, ! Handle
  Component Data 1,                       ! Name
  {b5633cfb-8f86-4bf3-9590-1ee9aab164ed}, ! UUID
  {7b235543-c6fd-4058-9a5c-0ae0580e76e9}, ! Version UUID
  1363981026,                             ! Creation Timestamp
  1363981026,                             ! Version Timestamp
  {e72d0314-3fe7-46f5-a86c-74fc3e9ada00}, ! Name of Object 1
  {3476c464-df81-4378-928c-4644ddc3fe04}, ! Name of Object 2
  {7bd834f5-4180-4e4b-b412-6c2a762c0155}; ! Name of Object 3

