
OS:Version,
  {a7a0251e-d327-41da-9c6e-a706cfab50f5}, ! Handle
  0.9.3;                                  ! Version Identifier

OS:Construction,
  {5653a336-15e6-45c8-9f0b-81725acefa55}, ! Handle
  90.1 Windows Window Fixed 2146 Mtl-HptMpr-Std-ClrSue, ! Name
  ,                                       ! Surface Rendering Name
  {cc06e234-5eae-4984-a375-498e04ee7c41}; ! Layer 1

OS:WindowMaterial:Glazing,
  {cc06e234-5eae-4984-a375-498e04ee7c41}, ! Handle
  Theoretical Glass [516],                ! Name
  SpectralAverage,                        ! Optical Data Type
  ,                                       ! Window Glass Spectral Data Set Name
  0.003,                                  ! Thickness {m}
  0.223775,                               ! Solar Transmittance at Normal Incidence
  0.726225,                               ! Front Side Solar Reflectance at Normal Incidence
  0.726225,                               ! Back Side Solar Reflectance at Normal Incidence
  0.301356,                               ! Visible Transmittance at Normal Incidence
  0.648644,                               ! Front Side Visible Reflectance at Normal Incidence
  0.648644,                               ! Back Side Visible Reflectance at Normal Incidence
  0,                                      ! Infrared Transmittance at Normal Incidence
  0.9,                                    ! Front Side Infrared Hemispherical Emissivity
  0.9,                                    ! Back Side Infrared Hemispherical Emissivity
  0.0198691;                              ! Conductivity {W/m-K}

OS:ComponentCost:LineItem,
  {121ee5d9-a393-4e57-8827-64881178d651}, ! Handle
  90.1 Windows Window Fixed 2146 Mtl-HptMpr-Std-ClrSue, ! Name
  ,                                       ! Type
  Construction,                           ! Line Item Type
  90.1 Windows Window Fixed 2146 Mtl-HptMpr-Std-ClrSue, ! Item Name
  ,                                       ! Object End Use Key
  ,                                       ! Quantity {dimensionless}
  0,                                      ! Material Cost {$}
  CostPerArea;                            ! Material Cost Units

