
OS:Version,
  {eede6db9-14d4-418a-a560-7e60fe7117af}, ! Handle
  0.9.3;                                  ! Version Identifier

OS:ComponentCost:LineItem,
  {7f2457a1-d2d1-4af8-9ac6-5048f49bf730}, ! Handle
  90.1-2004 Res 7A Roof IEAD,             ! Name
  ,                                       ! Type
  Construction,                           ! Line Item Type
  90.1-2004 Res 7A Roof IEAD,             ! Item Name
  ,                                       ! Object End Use Key
  ,                                       ! Quantity {dimensionless}
  49.208,                                 ! Material Cost {$}
  CostPerArea;                            ! Material Cost Units

OS:Material,
  {bba9686b-f84d-4462-a5ca-ab4bb0d0e916}, ! Handle
  Roof Insulation,                        ! Name
  MediumRough,                            ! Roughness
  0.124958,                               ! Thickness {m}
  0.049,                                  ! Conductivity {W/m-K}
  265,                                    ! Density {kg/m3}
  836.8,                                  ! Specific Heat {J/kg-K}
  0.9,                                    ! Thermal Absorptance
  0.7,                                    ! Solar Absorptance
  0.7;                                    ! Visible Absorptance

OS:Material,
  {72392276-c118-4676-871a-d49e5da08144}, ! Handle
  Roof Membrane,                          ! Name
  VeryRough,                              ! Roughness
  0.0095,                                 ! Thickness {m}
  0.16,                                   ! Conductivity {W/m-K}
  1121.29,                                ! Density {kg/m3}
  1460,                                   ! Specific Heat {J/kg-K}
  0.9,                                    ! Thermal Absorptance
  0.7,                                    ! Solar Absorptance
  0.7;                                    ! Visible Absorptance

OS:Material,
  {f004e13d-9c60-4767-bb43-cbc008910cdd}, ! Handle
  Metal Decking,                          ! Name
  MediumSmooth,                           ! Roughness
  0.001524,                               ! Thickness {m}
  45.006,                                 ! Conductivity {W/m-K}
  7680,                                   ! Density {kg/m3}
  418.4,                                  ! Specific Heat {J/kg-K}
  0.9,                                    ! Thermal Absorptance
  0.7,                                    ! Solar Absorptance
  0.3;                                    ! Visible Absorptance

OS:Construction,
  {25069308-94e9-4e2a-86ef-fe9f1d4a17da}, ! Handle
  90.1-2004 Res 7A Roof IEAD,             ! Name
  ,                                       ! Surface Rendering Name
  {72392276-c118-4676-871a-d49e5da08144}, ! Layer 1
  {bba9686b-f84d-4462-a5ca-ab4bb0d0e916}, ! Layer 2
  {f004e13d-9c60-4767-bb43-cbc008910cdd}; ! Layer 3

