
OS:Version,
  {66eb6eae-087c-4166-9ab9-bf62eaf9f4f4}, ! Handle
  0.9.3;                                  ! Version Identifier

OS:Material,
  {6f79ae64-990c-4312-a9ab-e277b74a6177}, ! Handle
  MAT-CC05 4 HW CONCRETE,                 ! Name
  Rough,                                  ! Roughness
  0.1016,                                 ! Thickness {m}
  1.311,                                  ! Conductivity {W/m-K}
  2240,                                   ! Density {kg/m3}
  836.8,                                  ! Specific Heat {J/kg-K}
  0.9,                                    ! Thermal Absorptance
  0.7,                                    ! Solar Absorptance
  0.7;                                    ! Visible Absorptance

OS:ComponentCost:LineItem,
  {c0fb7578-6c82-4062-9ebe-913afa509c49}, ! Handle
  90.1-1999 Nonres B19 Ext Slab Unheated - 4in Slab with Carpet, ! Name
  ,                                       ! Type
  Construction,                           ! Line Item Type
  90.1-1999 Nonres B19 Ext Slab Unheated - 4in Slab with Carpet, ! Item Name
  ,                                       ! Object End Use Key
  ,                                       ! Quantity {dimensionless}
  45.52,                                  ! Material Cost {$}
  CostPerArea;                            ! Material Cost Units

OS:Material:NoMass,
  {5bede642-90b9-466d-b9fb-372a0aad52be}, ! Handle
  CP02 CARPET PAD,                        ! Name
  VeryRough,                              ! Roughness
  0.21648,                                ! Thermal Resistance {m2-K/W}
  0.9,                                    ! Thermal Absorptance
  0.7,                                    ! Solar Absorptance
  0.8;                                    ! Visible Absorptance

OS:Construction,
  {1118239f-1e4a-4f53-83c1-66de01052953}, ! Handle
  90.1-1999 Nonres B19 Ext Slab Unheated - 4in Slab with Carpet, ! Name
  ,                                       ! Surface Rendering Name
  {6f79ae64-990c-4312-a9ab-e277b74a6177}, ! Layer 1
  {5bede642-90b9-466d-b9fb-372a0aad52be}; ! Layer 2

