
OS:Version,
  {499e6b36-7f31-4eb9-8b96-8a2fc72f4ee4}, ! Handle
  0.9.3;                                  ! Version Identifier

OS:Construction,
  {61dadb8f-5166-4481-b555-0b0f314bdd51}, ! Handle
  189.1-2009 Nonres 8A Window Metal framing all other, ! Name
  ,                                       ! Surface Rendering Name
  {36b97c58-855c-4681-a98d-c731ed2d89df}; ! Layer 1

OS:WindowMaterial:Glazing,
  {36b97c58-855c-4681-a98d-c731ed2d89df}, ! Handle
  Theoretical Glass [221],                ! Name
  SpectralAverage,                        ! Optical Data Type
  ,                                       ! Window Glass Spectral Data Set Name
  0.003,                                  ! Thickness {m}
  0.429551,                               ! Solar Transmittance at Normal Incidence
  0.520449,                               ! Front Side Solar Reflectance at Normal Incidence
  0.520449,                               ! Back Side Solar Reflectance at Normal Incidence
  0.450308,                               ! Visible Transmittance at Normal Incidence
  0.499692,                               ! Front Side Visible Reflectance at Normal Incidence
  0.499692,                               ! Back Side Visible Reflectance at Normal Incidence
  0,                                      ! Infrared Transmittance at Normal Incidence
  0.9,                                    ! Front Side Infrared Hemispherical Emissivity
  0.9,                                    ! Back Side Infrared Hemispherical Emissivity
  0.00893994;                             ! Conductivity {W/m-K}

OS:ComponentCost:LineItem,
  {54a72c9d-ac4e-46de-a0ce-752ca685a0ea}, ! Handle
  189.1-2009 Nonres 8A Window Metal framing all other, ! Name
  ,                                       ! Type
  Construction,                           ! Line Item Type
  189.1-2009 Nonres 8A Window Metal framing all other, ! Item Name
  ,                                       ! Object End Use Key
  ,                                       ! Quantity {dimensionless}
  508.362,                                ! Material Cost {$}
  CostPerArea;                            ! Material Cost Units

