
OS:Version,
  {a1a5ef33-4b23-4105-b71d-d3b28f1ee8a6}, ! Handle
  0.9.3;                                  ! Version Identifier

OS:ComponentCost:LineItem,
  {6442057e-a987-4f33-a9c5-3b82a6a4ef54}, ! Handle
  90.1-1999 Res B10 Window Fixed,         ! Name
  ,                                       ! Type
  Construction,                           ! Line Item Type
  90.1-1999 Res B10 Window Fixed,         ! Item Name
  ,                                       ! Object End Use Key
  ,                                       ! Quantity {dimensionless}
  560.656,                                ! Material Cost {$}
  CostPerArea;                            ! Material Cost Units

OS:Construction,
  {a2baa21b-04df-4a3f-8187-ee2eadcba562}, ! Handle
  90.1-1999 Res B10 Window Fixed,         ! Name
  ,                                       ! Surface Rendering Name
  {43d256eb-eb3b-4f27-b5ff-2047c7afbf21}; ! Layer 1

OS:WindowMaterial:Glazing,
  {43d256eb-eb3b-4f27-b5ff-2047c7afbf21}, ! Handle
  Theoretical Glass [83],                 ! Name
  SpectralAverage,                        ! Optical Data Type
  ,                                       ! Window Glass Spectral Data Set Name
  0.003,                                  ! Thickness {m}
  0.241161,                               ! Solar Transmittance at Normal Incidence
  0.708839,                               ! Front Side Solar Reflectance at Normal Incidence
  0.708839,                               ! Back Side Solar Reflectance at Normal Incidence
  0.261155,                               ! Visible Transmittance at Normal Incidence
  0.688845,                               ! Front Side Visible Reflectance at Normal Incidence
  0.688845,                               ! Back Side Visible Reflectance at Normal Incidence
  0,                                      ! Infrared Transmittance at Normal Incidence
  0.9,                                    ! Front Side Infrared Hemispherical Emissivity
  0.9,                                    ! Back Side Infrared Hemispherical Emissivity
  0.013781;                               ! Conductivity {W/m-K}

