
OS:Version,
  {970d310d-8176-4643-b0a6-c12e5a9feaac}, ! Handle
  0.9.3;                                  ! Version Identifier

OS:Construction,
  {80465990-39ad-4c6a-af6e-9977a213928e}, ! Handle
  90.1-1999 Res B10 Window Fixed,         ! Name
  ,                                       ! Surface Rendering Name
  {aa94ada0-c74f-4bf0-a9b2-eb40efd434f1}; ! Layer 1

OS:WindowMaterial:Glazing,
  {aa94ada0-c74f-4bf0-a9b2-eb40efd434f1}, ! Handle
  Theoretical Glass [83],                 ! Name
  SpectralAverage,                        ! Optical Data Type
  ,                                       ! Window Glass Spectral Data Set Name
  0.003,                                  ! Thickness {m}
  0.241161,                               ! Solar Transmittance at Normal Incidence
  0.708839,                               ! Front Side Solar Reflectance at Normal Incidence
  0.708839,                               ! Back Side Solar Reflectance at Normal Incidence
  0.261155,                               ! Visible Transmittance at Normal Incidence
  0.688845,                               ! Front Side Visible Reflectance at Normal Incidence
  0.688845,                               ! Back Side Visible Reflectance at Normal Incidence
  0,                                      ! Infrared Transmittance at Normal Incidence
  0.9,                                    ! Front Side Infrared Hemispherical Emissivity
  0.9,                                    ! Back Side Infrared Hemispherical Emissivity
  0.013781;                               ! Conductivity {W/m-K}

OS:ComponentCost:LineItem,
  {b27503d2-0539-45b0-847e-0318892d66fd}, ! Handle
  90.1-1999 Res B10 Window Fixed,         ! Name
  ,                                       ! Type
  Construction,                           ! Line Item Type
  90.1-1999 Res B10 Window Fixed,         ! Item Name
  ,                                       ! Object End Use Key
  ,                                       ! Quantity {dimensionless}
  560.656,                                ! Material Cost {$}
  CostPerArea;                            ! Material Cost Units

OS:ComponentData,
  {5f4f6fac-9654-4810-9533-7dc2a252b2ab}, ! Handle
  Component Data 1,                       ! Name
  {cc4fec62-3c6a-43af-ad40-fbd478ebd876}, ! UUID
  {b8690466-bfc7-4a4a-bb88-a8fc2290d2e9}, ! Version UUID
  1363981209,                             ! Creation Timestamp
  1363981209,                             ! Version Timestamp
  {80465990-39ad-4c6a-af6e-9977a213928e}, ! Name of Object 1
  {aa94ada0-c74f-4bf0-a9b2-eb40efd434f1}, ! Name of Object 2
  {b27503d2-0539-45b0-847e-0318892d66fd}; ! Name of Object 3

