
OS:Version,
  {44505060-55b1-4e7c-bd73-615dd2bbe800}, ! Handle
  0.9.3;                                  ! Version Identifier

OS:Construction,
  {0d0b745c-c973-43e6-ba31-56f054ba8d24}, ! Handle
  90.1-1999 Nonres B13 Skylight without Curb, ! Name
  ,                                       ! Surface Rendering Name
  {eb9aa317-6d6d-4dcf-9706-e60356d06efb}; ! Layer 1

OS:WindowMaterial:Glazing,
  {eb9aa317-6d6d-4dcf-9706-e60356d06efb}, ! Handle
  Theoretical Glass [32],                 ! Name
  SpectralAverage,                        ! Optical Data Type
  ,                                       ! Window Glass Spectral Data Set Name
  0.003,                                  ! Thickness {m}
  0.481761,                               ! Solar Transmittance at Normal Incidence
  0.468239,                               ! Front Side Solar Reflectance at Normal Incidence
  0.468239,                               ! Back Side Solar Reflectance at Normal Incidence
  0.529698,                               ! Visible Transmittance at Normal Incidence
  0.420302,                               ! Front Side Visible Reflectance at Normal Incidence
  0.420302,                               ! Back Side Visible Reflectance at Normal Incidence
  0,                                      ! Infrared Transmittance at Normal Incidence
  0.9,                                    ! Front Side Infrared Hemispherical Emissivity
  0.9,                                    ! Back Side Infrared Hemispherical Emissivity
  0.03026;                                ! Conductivity {W/m-K}

OS:ComponentCost:LineItem,
  {52a5cc2c-e6c2-4ffe-bd8c-9f3a3ad9d488}, ! Handle
  90.1-1999 Nonres B13 Skylight without Curb, ! Name
  ,                                       ! Type
  Construction,                           ! Line Item Type
  90.1-1999 Nonres B13 Skylight without Curb, ! Item Name
  ,                                       ! Object End Use Key
  ,                                       ! Quantity {dimensionless}
  514.818,                                ! Material Cost {$}
  CostPerArea;                            ! Material Cost Units

OS:ComponentData,
  {c2158f4b-957b-4bb0-a932-e3fae69d9962}, ! Handle
  Component Data 1,                       ! Name
  {f8e3b3ee-075a-4617-8e0a-61f0b8e6a6bb}, ! UUID
  {f021b741-984e-4bf1-8de3-8930ae548f6f}, ! Version UUID
  1363981099,                             ! Creation Timestamp
  1363981099,                             ! Version Timestamp
  {0d0b745c-c973-43e6-ba31-56f054ba8d24}, ! Name of Object 1
  {eb9aa317-6d6d-4dcf-9706-e60356d06efb}, ! Name of Object 2
  {52a5cc2c-e6c2-4ffe-bd8c-9f3a3ad9d488}; ! Name of Object 3

