
! 
OS:Version,
  {9c37d538-db0d-4a47-9850-5bede7e76bd5}, !- Handle
  1.13.0;                                 !- Version Identifier


! {"nombreProductoCorto": "STADIP 1010.2 con COOL-LITE ST150", "codigoEAN": "", "handle": "9a9aedf0-3db5-47c2-bdfb-cfa9b48ba568", "g": 0.51, "tV": 0.51, "u": 5.2, "nombreProducto": "STADIP 1010.2 con COOL-LITE ST150\nU:5.2 W/m2K - g:0.51 - Tv: 0.51"}
OS:WindowMaterial:SimpleGlazingSystem,
  {9a9aedf0-3db5-47c2-bdfb-cfa9b48ba568}, !- Handle
  STADIP 1010.2 con COOL-LITE ST150, !- Name
  5.2,                                    !- U-Factor {W/m2-K}
  0.51,                                    !- Solar Heat Gain Coefficient
  0.51;                                    !- Visible Transmittance     
  
  
OS:Construction,
  {86b9becf-5c22-4e8e-8679-454dde36dd93}, !- Handle
  STADIP 1010.2 con COOL-LITE ST150,                         !- Name
  ,                                       !- Surface Rendering Name
  {9a9aedf0-3db5-47c2-bdfb-cfa9b48ba568}; !- Layer 1  

