
OS:Version,
  {abe676b2-432d-41b2-a041-33dfd183994c}, ! Handle
  0.9.3;                                  ! Version Identifier

OS:Construction,
  {3ce69b77-2333-4c96-b1a8-0fa6c66d6c4b}, ! Handle
  90.1 Windows Window Fixed 2321 Brk-Clr-Std-ClrPye, ! Name
  ,                                       ! Surface Rendering Name
  {f2b18ec5-0bba-42a2-967f-a6a086ae8b7d}; ! Layer 1

OS:WindowMaterial:Glazing,
  {f2b18ec5-0bba-42a2-967f-a6a086ae8b7d}, ! Handle
  Theoretical Glass [270],                ! Name
  SpectralAverage,                        ! Optical Data Type
  ,                                       ! Window Glass Spectral Data Set Name
  0.003,                                  ! Thickness {m}
  0.633525,                               ! Solar Transmittance at Normal Incidence
  0.316475,                               ! Front Side Solar Reflectance at Normal Incidence
  0.316475,                               ! Back Side Solar Reflectance at Normal Incidence
  0.659809,                               ! Visible Transmittance at Normal Incidence
  0.290191,                               ! Front Side Visible Reflectance at Normal Incidence
  0.290191,                               ! Back Side Visible Reflectance at Normal Incidence
  0,                                      ! Infrared Transmittance at Normal Incidence
  0.9,                                    ! Front Side Infrared Hemispherical Emissivity
  0.9,                                    ! Back Side Infrared Hemispherical Emissivity
  0.0150091;                              ! Conductivity {W/m-K}

OS:ComponentCost:LineItem,
  {202456ac-3efa-4966-a5fc-6a95d9f7c801}, ! Handle
  90.1 Windows Window Fixed 2321 Brk-Clr-Std-ClrPye, ! Name
  ,                                       ! Type
  Construction,                           ! Line Item Type
  90.1 Windows Window Fixed 2321 Brk-Clr-Std-ClrPye, ! Item Name
  ,                                       ! Object End Use Key
  ,                                       ! Quantity {dimensionless}
  0,                                      ! Material Cost {$}
  CostPerArea;                            ! Material Cost Units

