
OS:Version,
  {73f462c7-ba3b-4c5b-913a-42b28788b225}, ! Handle
  0.9.3;                                  ! Version Identifier

OS:Construction,
  {d79bf4f3-618d-4018-ab59-f8c4a5807ec3}, ! Handle
  189.1-2009 Res 6B Ext Slab Unheated - 4in Slab without Carpet, ! Name
  ,                                       ! Surface Rendering Name
  {377d02ce-0a7d-4855-a4bc-8199ba70abff}; ! Layer 1

OS:Material,
  {377d02ce-0a7d-4855-a4bc-8199ba70abff}, ! Handle
  MAT-CC05 4 HW CONCRETE,                 ! Name
  Rough,                                  ! Roughness
  0.1016,                                 ! Thickness {m}
  1.311,                                  ! Conductivity {W/m-K}
  2240,                                   ! Density {kg/m3}
  836.8,                                  ! Specific Heat {J/kg-K}
  0.9,                                    ! Thermal Absorptance
  0.7,                                    ! Solar Absorptance
  0.7;                                    ! Visible Absorptance

OS:ComponentCost:LineItem,
  {07691ce5-8df0-49d5-adb4-ae639a6b96d2}, ! Handle
  189.1-2009 Res 6B Ext Slab Unheated - 4in Slab without Carpet, ! Name
  ,                                       ! Type
  Construction,                           ! Line Item Type
  189.1-2009 Res 6B Ext Slab Unheated - 4in Slab without Carpet, ! Item Name
  ,                                       ! Object End Use Key
  ,                                       ! Quantity {dimensionless}
  45.52,                                  ! Material Cost {$}
  CostPerArea;                            ! Material Cost Units

