
OS:Version,
  {cd1c1b5e-7eb4-415e-ad2c-5b5813880518}, ! Handle
  0.9.3;                                  ! Version Identifier

OS:Material,
  {d2be1ff3-cbe6-4432-9e39-e3f431fb6763}, ! Handle
  Metal Siding,                           ! Name
  Smooth,                                 ! Roughness
  0.0015,                                 ! Thickness {m}
  44.96,                                  ! Conductivity {W/m-K}
  7688.86,                                ! Density {kg/m3}
  410,                                    ! Specific Heat {J/kg-K}
  0.9,                                    ! Thermal Absorptance
  0.2,                                    ! Solar Absorptance
  0.2;                                    ! Visible Absorptance

OS:Material,
  {41fbb784-5a70-4dcf-8c9a-fd08093d263a}, ! Handle
  Wall Insulation,                        ! Name
  MediumRough,                            ! Roughness
  0.0598725,                              ! Thickness {m}
  0.045,                                  ! Conductivity {W/m-K}
  265,                                    ! Density {kg/m3}
  836.8,                                  ! Specific Heat {J/kg-K}
  0.9,                                    ! Thermal Absorptance
  0.7,                                    ! Solar Absorptance
  0.7;                                    ! Visible Absorptance

OS:ComponentCost:LineItem,
  {f0041d13-0936-4d3b-a906-310dc6107981}, ! Handle
  90.1-2001 Nonres B7 Ext Wall Metal Building, ! Name
  ,                                       ! Type
  Construction,                           ! Line Item Type
  90.1-2001 Nonres B7 Ext Wall Metal Building, ! Item Name
  ,                                       ! Object End Use Key
  ,                                       ! Quantity {dimensionless}
  98.78,                                  ! Material Cost {$}
  CostPerArea;                            ! Material Cost Units

OS:Material,
  {86694679-261c-456c-8e75-8234cf95e3ed}, ! Handle
  1/2IN Gypsum,                           ! Name
  Smooth,                                 ! Roughness
  0.01271,                                ! Thickness {m}
  0.16,                                   ! Conductivity {W/m-K}
  784.9,                                  ! Density {kg/m3}
  830,                                    ! Specific Heat {J/kg-K}
  0.9,                                    ! Thermal Absorptance
  0.92,                                   ! Solar Absorptance
  0.92;                                   ! Visible Absorptance

OS:Construction,
  {ba7d18b6-334e-4e32-8123-8dabeecb21a3}, ! Handle
  90.1-2001 Nonres B7 Ext Wall Metal Building, ! Name
  ,                                       ! Surface Rendering Name
  {d2be1ff3-cbe6-4432-9e39-e3f431fb6763}, ! Layer 1
  {41fbb784-5a70-4dcf-8c9a-fd08093d263a}, ! Layer 2
  {86694679-261c-456c-8e75-8234cf95e3ed}; ! Layer 3

