
OS:Version,
  {1ae144c6-10cc-4e6a-885e-7cb236318a4c}, ! Handle
  0.9.3;                                  ! Version Identifier

OS:Construction,
  {c7384f58-c632-4c3e-954a-7c617f8e10dd}, ! Handle
  AEDG K12 Nonres 8A Ext Slab Unheated - 8in Slab with Carpet, ! Name
  ,                                       ! Surface Rendering Name
  {b535ed30-74ea-4cbc-bc66-3e4ad7a758d6}, ! Layer 1
  {0e86b642-4df7-4bf6-8f8e-2b80f58224b9}; ! Layer 2

OS:Material,
  {b535ed30-74ea-4cbc-bc66-3e4ad7a758d6}, ! Handle
  MAT-CC05 8 HW CONCRETE,                 ! Name
  Rough,                                  ! Roughness
  0.20321,                                ! Thickness {m}
  1.311,                                  ! Conductivity {W/m-K}
  2240,                                   ! Density {kg/m3}
  836.8,                                  ! Specific Heat {J/kg-K}
  0.9,                                    ! Thermal Absorptance
  0.7,                                    ! Solar Absorptance
  0.7;                                    ! Visible Absorptance

OS:Material:NoMass,
  {0e86b642-4df7-4bf6-8f8e-2b80f58224b9}, ! Handle
  CP02 CARPET PAD,                        ! Name
  VeryRough,                              ! Roughness
  0.21648,                                ! Thermal Resistance {m2-K/W}
  0.9,                                    ! Thermal Absorptance
  0.7,                                    ! Solar Absorptance
  0.8;                                    ! Visible Absorptance

OS:ComponentCost:LineItem,
  {1ac8e15e-ccb4-4288-9e3c-288365cc3f7f}, ! Handle
  AEDG K12 Nonres 8A Ext Slab Unheated - 8in Slab with Carpet, ! Name
  ,                                       ! Type
  Construction,                           ! Line Item Type
  AEDG K12 Nonres 8A Ext Slab Unheated - 8in Slab with Carpet, ! Item Name
  ,                                       ! Object End Use Key
  ,                                       ! Quantity {dimensionless}
  0,                                      ! Material Cost {$}
  CostPerArea;                            ! Material Cost Units

OS:ComponentData,
  {82dd91dd-3046-4db1-9ddb-13a1ab6e7f69}, ! Handle
  Component Data 1,                       ! Name
  {4c9043cc-2c65-4998-b9a6-849d7394cf1e}, ! UUID
  {506628d3-a505-41b3-b720-aebda454bb4c}, ! Version UUID
  1363981905,                             ! Creation Timestamp
  1363981905,                             ! Version Timestamp
  {c7384f58-c632-4c3e-954a-7c617f8e10dd}, ! Name of Object 1
  {b535ed30-74ea-4cbc-bc66-3e4ad7a758d6}, ! Name of Object 2
  {0e86b642-4df7-4bf6-8f8e-2b80f58224b9}, ! Name of Object 3
  {1ac8e15e-ccb4-4288-9e3c-288365cc3f7f}; ! Name of Object 4

