
OS:Version,
  {b7f1bcaf-90ae-46e6-8bcc-dfc6bc866746}, ! Handle
  0.9.3;                                  ! Version Identifier

OS:Construction,
  {7789d140-6d53-43fe-b45f-32cd1748af26}, ! Handle
  189.1-2009 Res 3A Ext Slab Unheated - 4in Slab with Carpet, ! Name
  ,                                       ! Surface Rendering Name
  {73a446f8-0b56-46c9-993a-90ecc1c8991a}, ! Layer 1
  {db3d8f38-96f4-4f76-af3e-8961a2ab194e}; ! Layer 2

OS:Material,
  {73a446f8-0b56-46c9-993a-90ecc1c8991a}, ! Handle
  MAT-CC05 4 HW CONCRETE,                 ! Name
  Rough,                                  ! Roughness
  0.1016,                                 ! Thickness {m}
  1.311,                                  ! Conductivity {W/m-K}
  2240,                                   ! Density {kg/m3}
  836.8,                                  ! Specific Heat {J/kg-K}
  0.9,                                    ! Thermal Absorptance
  0.7,                                    ! Solar Absorptance
  0.7;                                    ! Visible Absorptance

OS:Material:NoMass,
  {db3d8f38-96f4-4f76-af3e-8961a2ab194e}, ! Handle
  CP02 CARPET PAD,                        ! Name
  VeryRough,                              ! Roughness
  0.21648,                                ! Thermal Resistance {m2-K/W}
  0.9,                                    ! Thermal Absorptance
  0.7,                                    ! Solar Absorptance
  0.8;                                    ! Visible Absorptance

OS:ComponentCost:LineItem,
  {811c4619-15c2-4b8a-a964-52173fc13ce8}, ! Handle
  189.1-2009 Res 3A Ext Slab Unheated - 4in Slab with Carpet, ! Name
  ,                                       ! Type
  Construction,                           ! Line Item Type
  189.1-2009 Res 3A Ext Slab Unheated - 4in Slab with Carpet, ! Item Name
  ,                                       ! Object End Use Key
  ,                                       ! Quantity {dimensionless}
  45.52,                                  ! Material Cost {$}
  CostPerArea;                            ! Material Cost Units

