
OS:Version,
  {bc571475-c0bb-4541-bfb0-c2e58baa58b8}, !- Handle
  1.1.0;                                  !- Version Identifier

OS:Construction,
  {b8284dc4-ea29-42f2-8101-c2c4d7a5c5dd}, !- Handle
  Dbl Ref-A-H Clr 6mm/6mm Air,            !- Name
  ,                                       !- Surface Rendering Name
  {40d17884-dd8b-4f15-a277-b8934c97c9cd}, !- Layer 1
  {e337081a-2141-42c1-baef-9f60dc476ff7}, !- Layer 2
  {9632ac78-8476-40fa-81da-9d205585afdc}; !- Layer 3

OS:WindowMaterial:Glazing,
  {40d17884-dd8b-4f15-a277-b8934c97c9cd}, !- Handle
  REF A CLEAR HI 6MM,                     !- Name
  SpectralAverage,                        !- Optical Data Type
  ,                                       !- Window Glass Spectral Data Set Name
  0.006,                                  !- Thickness {m}
  0.159,                                  !- Solar Transmittance at Normal Incidence
  0.22,                                   !- Front Side Solar Reflectance at Normal Incidence
  0.37,                                   !- Back Side Solar Reflectance at Normal Incidence
  0.2,                                    !- Visible Transmittance at Normal Incidence
  0.25,                                   !- Front Side Visible Reflectance at Normal Incidence
  0.32,                                   !- Back Side Visible Reflectance at Normal Incidence
  0,                                      !- Infrared Transmittance at Normal Incidence
  0.84,                                   !- Front Side Infrared Hemispherical Emissivity
  0.57,                                   !- Back Side Infrared Hemispherical Emissivity
  0.9;                                    !- Conductivity {W/m-K}

OS:WindowMaterial:Gas,
  {e337081a-2141-42c1-baef-9f60dc476ff7}, !- Handle
  AIR 6MM,                                !- Name
  Air,                                    !- Gas Type
  0.0063;                                 !- Thickness {m}

OS:WindowMaterial:Glazing,
  {9632ac78-8476-40fa-81da-9d205585afdc}, !- Handle
  CLEAR 6MM,                              !- Name
  SpectralAverage,                        !- Optical Data Type
  ,                                       !- Window Glass Spectral Data Set Name
  0.006,                                  !- Thickness {m}
  0.775,                                  !- Solar Transmittance at Normal Incidence
  0.071,                                  !- Front Side Solar Reflectance at Normal Incidence
  0.071,                                  !- Back Side Solar Reflectance at Normal Incidence
  0.881,                                  !- Visible Transmittance at Normal Incidence
  0.08,                                   !- Front Side Visible Reflectance at Normal Incidence
  0.08,                                   !- Back Side Visible Reflectance at Normal Incidence
  0,                                      !- Infrared Transmittance at Normal Incidence
  0.84,                                   !- Front Side Infrared Hemispherical Emissivity
  0.84,                                   !- Back Side Infrared Hemispherical Emissivity
  0.9;                                    !- Conductivity {W/m-K}

