
OS:Version,
  {3e62b241-05ba-4b0e-a99d-04f1def68faa}, ! Handle
  0.9.3;                                  ! Version Identifier

OS:Material,
  {6b401ea7-37fa-4f68-88fc-89182b836790}, ! Handle
  GP01 1/2 GYPSUM,                        ! Name
  Smooth,                                 ! Roughness
  0.01271,                                ! Thickness {m}
  0.16,                                   ! Conductivity {W/m-K}
  800,                                    ! Density {kg/m3}
  1090,                                   ! Specific Heat {J/kg-K}
  0.9,                                    ! Thermal Absorptance
  0.7,                                    ! Solar Absorptance
  0.5;                                    ! Visible Absorptance

OS:Material,
  {c34d357d-6cec-40b1-ba2d-5268684f2a24}, ! Handle
  GP01 1/2 GYPSUM 1,                      ! Name
  Smooth,                                 ! Roughness
  0.01271,                                ! Thickness {m}
  0.16,                                   ! Conductivity {W/m-K}
  800,                                    ! Density {kg/m3}
  1090,                                   ! Specific Heat {J/kg-K}
  0.9,                                    ! Thermal Absorptance
  0.7,                                    ! Solar Absorptance
  0.5;                                    ! Visible Absorptance

OS:Construction,
  {4321ddfd-1b96-4b8e-afce-ff6f52b4c5ee}, ! Handle
  Title 24-2008 Nonres 2 Int Wall,        ! Name
  ,                                       ! Surface Rendering Name
  {6b401ea7-37fa-4f68-88fc-89182b836790}, ! Layer 1
  {6b401ea7-37fa-4f68-88fc-89182b836790}; ! Layer 2

OS:ComponentCost:LineItem,
  {945a6fdd-a887-4145-8283-11497a5a7796}, ! Handle
  Title 24-2008 Nonres 2 Int Wall,        ! Name
  ,                                       ! Type
  Construction,                           ! Line Item Type
  Title 24-2008 Nonres 2 Int Wall,        ! Item Name
  ,                                       ! Object End Use Key
  ,                                       ! Quantity {dimensionless}
  0,                                      ! Material Cost {$}
  CostPerArea;                            ! Material Cost Units

