
OS:Version,
  {2ffdf16b-1260-42ea-a8a9-fc73d07efdb0}, ! Handle
  0.9.3;                                  ! Version Identifier

OS:ComponentCost:LineItem,
  {9756cea9-0213-4e8d-b532-41e277f8e770}, ! Handle
  90.1-2004 Res 7A Roof Metal Building,   ! Name
  ,                                       ! Type
  Construction,                           ! Line Item Type
  90.1-2004 Res 7A Roof Metal Building,   ! Item Name
  ,                                       ! Object End Use Key
  ,                                       ! Quantity {dimensionless}
  38.206,                                 ! Material Cost {$}
  CostPerArea;                            ! Material Cost Units

OS:Construction,
  {ae5a5b9f-3004-4f98-b430-36211da8626c}, ! Handle
  90.1-2004 Res 7A Roof Metal Building,   ! Name
  ,                                       ! Surface Rendering Name
  {dbfdca87-66e4-40f9-ba09-03eb31923ae5}, ! Layer 1
  {41aba121-6b38-433d-87a2-353eacc90946}; ! Layer 2

OS:Material,
  {dbfdca87-66e4-40f9-ba09-03eb31923ae5}, ! Handle
  Metal Roofing,                          ! Name
  MediumSmooth,                           ! Roughness
  0.001524,                               ! Thickness {m}
  45.006,                                 ! Conductivity {W/m-K}
  7680,                                   ! Density {kg/m3}
  418.4,                                  ! Specific Heat {J/kg-K}
  0.9,                                    ! Thermal Absorptance
  0.7,                                    ! Solar Absorptance
  0.3;                                    ! Visible Absorptance

OS:Material,
  {41aba121-6b38-433d-87a2-353eacc90946}, ! Handle
  Roof Insulation [1],                    ! Name
  MediumRough,                            ! Roughness
  0.123533,                               ! Thickness {m}
  0.049,                                  ! Conductivity {W/m-K}
  265,                                    ! Density {kg/m3}
  836.8,                                  ! Specific Heat {J/kg-K}
  0.9,                                    ! Thermal Absorptance
  0.7,                                    ! Solar Absorptance
  0.7;                                    ! Visible Absorptance

