
OS:Version,
  {c75fbfe3-348d-42f0-a84d-c0f5d6f5283b}, ! Handle
  0.9.3;                                  ! Version Identifier

OS:Construction,
  {d83a076a-3e1d-4265-841c-cee01663f93c}, ! Handle
  90.1-1999 Nonres B25 Int Wall,          ! Name
  ,                                       ! Surface Rendering Name
  {c510ae03-f1ca-4fec-842a-e2356b83b5f8}, ! Layer 1
  {c510ae03-f1ca-4fec-842a-e2356b83b5f8}; ! Layer 2

OS:Material,
  {c510ae03-f1ca-4fec-842a-e2356b83b5f8}, ! Handle
  GP01 1/2 GYPSUM,                        ! Name
  Smooth,                                 ! Roughness
  0.01271,                                ! Thickness {m}
  0.16,                                   ! Conductivity {W/m-K}
  800,                                    ! Density {kg/m3}
  1090,                                   ! Specific Heat {J/kg-K}
  0.9,                                    ! Thermal Absorptance
  0.7,                                    ! Solar Absorptance
  0.5;                                    ! Visible Absorptance

OS:ComponentCost:LineItem,
  {579677cb-8d42-4538-ad0e-ec9003de79d8}, ! Handle
  90.1-1999 Nonres B25 Int Wall,          ! Name
  ,                                       ! Type
  Construction,                           ! Line Item Type
  90.1-1999 Nonres B25 Int Wall,          ! Item Name
  ,                                       ! Object End Use Key
  ,                                       ! Quantity {dimensionless}
  0,                                      ! Material Cost {$}
  CostPerArea;                            ! Material Cost Units

OS:ComponentData,
  {ea067234-47f2-45d1-9bce-69546cecb375}, ! Handle
  Component Data 1,                       ! Name
  {3e008d48-c391-4b41-b088-272c34bd2e08}, ! UUID
  {4c9da425-0f43-4b5a-9b9f-42d2ad86bd18}, ! Version UUID
  1363981151,                             ! Creation Timestamp
  1363981151,                             ! Version Timestamp
  {d83a076a-3e1d-4265-841c-cee01663f93c}, ! Name of Object 1
  {c510ae03-f1ca-4fec-842a-e2356b83b5f8}, ! Name of Object 2
  {579677cb-8d42-4538-ad0e-ec9003de79d8}; ! Name of Object 3

