
OS:Version,
  {3e2c56a7-2938-425f-841a-1a0a888b508f}, ! Handle
  0.9.3;                                  ! Version Identifier

OS:Material,
  {19d35a3e-bf44-4f28-9034-a9f782f7d49a}, ! Handle
  1/2IN Gypsum,                           ! Name
  Smooth,                                 ! Roughness
  0.01271,                                ! Thickness {m}
  0.16,                                   ! Conductivity {W/m-K}
  784.9,                                  ! Density {kg/m3}
  830,                                    ! Specific Heat {J/kg-K}
  0.9,                                    ! Thermal Absorptance
  0.92,                                   ! Solar Absorptance
  0.92;                                   ! Visible Absorptance

OS:Construction,
  {1e623e8f-80c7-40ed-9ef6-a3b2cd1eeb5a}, ! Handle
  90.1-1999 Res B24 Ext Wall Wood-Framed and Other, ! Name
  ,                                       ! Surface Rendering Name
  {404dd8c1-3cd3-4382-b9b3-2f29f76938a0}, ! Layer 1
  {809508b5-a221-444a-9793-512e0fa64a3a}, ! Layer 2
  {19d35a3e-bf44-4f28-9034-a9f782f7d49a}; ! Layer 3

OS:Material,
  {404dd8c1-3cd3-4382-b9b3-2f29f76938a0}, ! Handle
  Wood Siding,                            ! Name
  MediumSmooth,                           ! Roughness
  0.01,                                   ! Thickness {m}
  0.11,                                   ! Conductivity {W/m-K}
  544.62,                                 ! Density {kg/m3}
  1210,                                   ! Specific Heat {J/kg-K}
  0.9,                                    ! Thermal Absorptance
  0.78,                                   ! Solar Absorptance
  0.78;                                   ! Visible Absorptance

OS:Material,
  {809508b5-a221-444a-9793-512e0fa64a3a}, ! Handle
  Wall Insulation [13],                   ! Name
  MediumRough,                            ! Roughness
  0.140713,                               ! Thickness {m}
  0.045,                                  ! Conductivity {W/m-K}
  265,                                    ! Density {kg/m3}
  836.8,                                  ! Specific Heat {J/kg-K}
  0.9,                                    ! Thermal Absorptance
  0.7,                                    ! Solar Absorptance
  0.7;                                    ! Visible Absorptance

OS:ComponentCost:LineItem,
  {e019d846-ec82-4f3d-b667-9945f059c0ee}, ! Handle
  90.1-1999 Res B24 Ext Wall Wood-Framed and Other, ! Name
  ,                                       ! Type
  Construction,                           ! Line Item Type
  90.1-1999 Res B24 Ext Wall Wood-Framed and Other, ! Item Name
  ,                                       ! Object End Use Key
  ,                                       ! Quantity {dimensionless}
  80.638,                                 ! Material Cost {$}
  CostPerArea;                            ! Material Cost Units

