
OS:Version,
  {032ac0bc-f7d4-4c6c-b908-5b989fc967fe}, ! Handle
  0.9.3;                                  ! Version Identifier

OS:Construction,
  {7c69e53c-fd68-491e-b6a2-02a989aac50a}, ! Handle
  90.1-1999 Res B24 Ext Wall Wood-Framed and Other, ! Name
  ,                                       ! Surface Rendering Name
  {02763557-fac1-44f8-bc6a-1e719b70b3b9}, ! Layer 1
  {220caea7-d296-4fcd-b533-1919897c94a3}, ! Layer 2
  {f91669eb-7f83-42cd-b6f4-0bf4f6b4581b}; ! Layer 3

OS:Material,
  {02763557-fac1-44f8-bc6a-1e719b70b3b9}, ! Handle
  Wood Siding,                            ! Name
  MediumSmooth,                           ! Roughness
  0.01,                                   ! Thickness {m}
  0.11,                                   ! Conductivity {W/m-K}
  544.62,                                 ! Density {kg/m3}
  1210,                                   ! Specific Heat {J/kg-K}
  0.9,                                    ! Thermal Absorptance
  0.78,                                   ! Solar Absorptance
  0.78;                                   ! Visible Absorptance

OS:Material,
  {220caea7-d296-4fcd-b533-1919897c94a3}, ! Handle
  Wall Insulation [13],                   ! Name
  MediumRough,                            ! Roughness
  0.140713,                               ! Thickness {m}
  0.045,                                  ! Conductivity {W/m-K}
  265,                                    ! Density {kg/m3}
  836.8,                                  ! Specific Heat {J/kg-K}
  0.9,                                    ! Thermal Absorptance
  0.7,                                    ! Solar Absorptance
  0.7;                                    ! Visible Absorptance

OS:Material,
  {f91669eb-7f83-42cd-b6f4-0bf4f6b4581b}, ! Handle
  1/2IN Gypsum,                           ! Name
  Smooth,                                 ! Roughness
  0.01271,                                ! Thickness {m}
  0.16,                                   ! Conductivity {W/m-K}
  784.9,                                  ! Density {kg/m3}
  830,                                    ! Specific Heat {J/kg-K}
  0.9,                                    ! Thermal Absorptance
  0.92,                                   ! Solar Absorptance
  0.92;                                   ! Visible Absorptance

OS:ComponentCost:LineItem,
  {be11cc86-3455-493b-a890-29f7b122fdb9}, ! Handle
  90.1-1999 Res B24 Ext Wall Wood-Framed and Other, ! Name
  ,                                       ! Type
  Construction,                           ! Line Item Type
  90.1-1999 Res B24 Ext Wall Wood-Framed and Other, ! Item Name
  ,                                       ! Object End Use Key
  ,                                       ! Quantity {dimensionless}
  80.638,                                 ! Material Cost {$}
  CostPerArea;                            ! Material Cost Units

OS:ComponentData,
  {1d5b456f-493d-4deb-8ac9-11db74fbf6e9}, ! Handle
  Component Data 1,                       ! Name
  {0677f11e-9cc8-48f9-b297-7a01ecef67a3}, ! UUID
  {593880f7-6dc4-4b76-a5d8-2fb849923085}, ! Version UUID
  1363981270,                             ! Creation Timestamp
  1363981270,                             ! Version Timestamp
  {7c69e53c-fd68-491e-b6a2-02a989aac50a}, ! Name of Object 1
  {02763557-fac1-44f8-bc6a-1e719b70b3b9}, ! Name of Object 2
  {220caea7-d296-4fcd-b533-1919897c94a3}, ! Name of Object 3
  {f91669eb-7f83-42cd-b6f4-0bf4f6b4581b}, ! Name of Object 4
  {be11cc86-3455-493b-a890-29f7b122fdb9}; ! Name of Object 5

