
OS:Version,
  {763723ef-24df-4292-8ff9-7b837ab4c30a}, ! Handle
  0.9.3;                                  ! Version Identifier

OS:Construction,
  {4814ded6-ded9-428a-9ef8-e5486749128e}, ! Handle
  90.1-2001 Res B21 Window Fixed,         ! Name
  ,                                       ! Surface Rendering Name
  {9159d677-3804-4d8b-856d-da61aa73492f}; ! Layer 1

OS:WindowMaterial:Glazing,
  {9159d677-3804-4d8b-856d-da61aa73492f}, ! Handle
  Theoretical Glass [106],                ! Name
  SpectralAverage,                        ! Optical Data Type
  ,                                       ! Window Glass Spectral Data Set Name
  0.003,                                  ! Thickness {m}
  0.618894,                               ! Solar Transmittance at Normal Incidence
  0.331106,                               ! Front Side Solar Reflectance at Normal Incidence
  0.331106,                               ! Back Side Solar Reflectance at Normal Incidence
  0.639644,                               ! Visible Transmittance at Normal Incidence
  0.310356,                               ! Front Side Visible Reflectance at Normal Incidence
  0.310356,                               ! Back Side Visible Reflectance at Normal Incidence
  0,                                      ! Infrared Transmittance at Normal Incidence
  0.9,                                    ! Front Side Infrared Hemispherical Emissivity
  0.9,                                    ! Back Side Infrared Hemispherical Emissivity
  0.0089232;                              ! Conductivity {W/m-K}

OS:ComponentCost:LineItem,
  {47e8ad66-81c6-4eda-aa5c-637975f5ca84}, ! Handle
  90.1-2001 Res B21 Window Fixed,         ! Name
  ,                                       ! Type
  Construction,                           ! Line Item Type
  90.1-2001 Res B21 Window Fixed,         ! Item Name
  ,                                       ! Object End Use Key
  ,                                       ! Quantity {dimensionless}
  572.599,                                ! Material Cost {$}
  CostPerArea;                            ! Material Cost Units

OS:ComponentData,
  {35a1957f-016a-4c22-8435-73fb1ad7d09c}, ! Handle
  Component Data 1,                       ! Name
  {92f834f5-5d25-4e74-92e8-dcad28d9099e}, ! UUID
  {fd54beda-0f77-4af6-a4cc-d619f3cf7d6c}, ! Version UUID
  1363981586,                             ! Creation Timestamp
  1363981586,                             ! Version Timestamp
  {4814ded6-ded9-428a-9ef8-e5486749128e}, ! Name of Object 1
  {9159d677-3804-4d8b-856d-da61aa73492f}, ! Name of Object 2
  {47e8ad66-81c6-4eda-aa5c-637975f5ca84}; ! Name of Object 3

