
OS:Version,
  {e064c1d2-50e8-494f-bc12-bab7240e0624}, ! Handle
  0.9.3;                                  ! Version Identifier

OS:Construction,
  {928ad712-34b6-4c7f-ab5c-5de60c80fc0d}, ! Handle
  90.1-2001 Res B21 Window Fixed,         ! Name
  ,                                       ! Surface Rendering Name
  {4ed2b6dc-22d0-49ec-9002-76c5dbefb06f}; ! Layer 1

OS:WindowMaterial:Glazing,
  {4ed2b6dc-22d0-49ec-9002-76c5dbefb06f}, ! Handle
  Theoretical Glass [106],                ! Name
  SpectralAverage,                        ! Optical Data Type
  ,                                       ! Window Glass Spectral Data Set Name
  0.003,                                  ! Thickness {m}
  0.618894,                               ! Solar Transmittance at Normal Incidence
  0.331106,                               ! Front Side Solar Reflectance at Normal Incidence
  0.331106,                               ! Back Side Solar Reflectance at Normal Incidence
  0.639644,                               ! Visible Transmittance at Normal Incidence
  0.310356,                               ! Front Side Visible Reflectance at Normal Incidence
  0.310356,                               ! Back Side Visible Reflectance at Normal Incidence
  0,                                      ! Infrared Transmittance at Normal Incidence
  0.9,                                    ! Front Side Infrared Hemispherical Emissivity
  0.9,                                    ! Back Side Infrared Hemispherical Emissivity
  0.0089232;                              ! Conductivity {W/m-K}

OS:ComponentCost:LineItem,
  {5cde3fbf-a132-40a3-bdef-1f0e0ee3e853}, ! Handle
  90.1-2001 Res B21 Window Fixed,         ! Name
  ,                                       ! Type
  Construction,                           ! Line Item Type
  90.1-2001 Res B21 Window Fixed,         ! Item Name
  ,                                       ! Object End Use Key
  ,                                       ! Quantity {dimensionless}
  572.599,                                ! Material Cost {$}
  CostPerArea;                            ! Material Cost Units

