
OS:Version,
  {c5fc4299-e29f-4f62-beeb-95dbb3a77ba8}, ! Handle
  0.9.3;                                  ! Version Identifier

OS:ComponentCost:LineItem,
  {cf693b1f-f958-4679-87c1-5448c3f714f3}, ! Handle
  90.1-1999 Nonres B10 Skylight without Curb, ! Name
  ,                                       ! Type
  Construction,                           ! Line Item Type
  90.1-1999 Nonres B10 Skylight without Curb, ! Item Name
  ,                                       ! Object End Use Key
  ,                                       ! Quantity {dimensionless}
  535.8,                                  ! Material Cost {$}
  CostPerArea;                            ! Material Cost Units

OS:Construction,
  {448769e6-8eb7-4d9b-849b-01e37a8e9a55}, ! Handle
  90.1-1999 Nonres B10 Skylight without Curb, ! Name
  ,                                       ! Surface Rendering Name
  {197cdc83-d7b9-411a-9e2f-d72fd5a6d343}; ! Layer 1

OS:WindowMaterial:Glazing,
  {197cdc83-d7b9-411a-9e2f-d72fd5a6d343}, ! Handle
  Theoretical Glass [28],                 ! Name
  SpectralAverage,                        ! Optical Data Type
  ,                                       ! Window Glass Spectral Data Set Name
  0.003,                                  ! Thickness {m}
  0.382225,                               ! Solar Transmittance at Normal Incidence
  0.567775,                               ! Front Side Solar Reflectance at Normal Incidence
  0.567775,                               ! Back Side Solar Reflectance at Normal Incidence
  0.41104,                                ! Visible Transmittance at Normal Incidence
  0.53896,                                ! Front Side Visible Reflectance at Normal Incidence
  0.53896,                                ! Back Side Visible Reflectance at Normal Incidence
  0,                                      ! Infrared Transmittance at Normal Incidence
  0.9,                                    ! Front Side Infrared Hemispherical Emissivity
  0.9,                                    ! Back Side Infrared Hemispherical Emissivity
  0.03026;                                ! Conductivity {W/m-K}

