
OS:Version,
  {334bf208-5bbf-4b5d-8465-488d4d836265}, ! Handle
  0.9.3;                                  ! Version Identifier

OS:ComponentCost:LineItem,
  {3e0be303-973f-4c4e-a0d1-0095098841c5}, ! Handle
  90.1-1999 Res B2 Int Wall,              ! Name
  ,                                       ! Type
  Construction,                           ! Line Item Type
  90.1-1999 Res B2 Int Wall,              ! Item Name
  ,                                       ! Object End Use Key
  ,                                       ! Quantity {dimensionless}
  0,                                      ! Material Cost {$}
  CostPerArea;                            ! Material Cost Units

OS:Construction,
  {9421b2b0-7df8-4a15-8faf-fe926e3710c7}, ! Handle
  90.1-1999 Res B2 Int Wall,              ! Name
  ,                                       ! Surface Rendering Name
  {de1552fc-66d6-49de-a5e1-e737d41f8752}, ! Layer 1
  {de1552fc-66d6-49de-a5e1-e737d41f8752}; ! Layer 2

OS:Material,
  {de1552fc-66d6-49de-a5e1-e737d41f8752}, ! Handle
  GP01 1/2 GYPSUM,                        ! Name
  Smooth,                                 ! Roughness
  0.01271,                                ! Thickness {m}
  0.16,                                   ! Conductivity {W/m-K}
  800,                                    ! Density {kg/m3}
  1090,                                   ! Specific Heat {J/kg-K}
  0.9,                                    ! Thermal Absorptance
  0.7,                                    ! Solar Absorptance
  0.5;                                    ! Visible Absorptance

OS:Material,
  {81be0dd0-fd75-4d5a-9226-bc7e9bf7ffb3}, ! Handle
  GP01 1/2 GYPSUM 1,                      ! Name
  Smooth,                                 ! Roughness
  0.01271,                                ! Thickness {m}
  0.16,                                   ! Conductivity {W/m-K}
  800,                                    ! Density {kg/m3}
  1090,                                   ! Specific Heat {J/kg-K}
  0.9,                                    ! Thermal Absorptance
  0.7,                                    ! Solar Absorptance
  0.5;                                    ! Visible Absorptance

