
! 
OS:Version,
  {9c37d538-db0d-4a47-9850-5bede7e76bd5}, !- Handle
  1.13.0;                                 !- Version Identifier


! {"nombreProductoCorto": "CLIMALIT PLUS con COOL LITE SKN 074 F2 6 (16 argon90%) 44.2 DIAMANT", "codigoEAN": "", "handle": "e3ffa743-91f5-4f16-9e47-5351899ee40f", "g": 0.42, "tV": 0.69, "u": 1.1, "nombreProducto": "CLIMALIT PLUS con COOL LITE SKN 074 F2 6 (16 argon90%) 44.2 DIAMANT\nU:1.1 W/m2K - g:0.42 - Tv: 0.69"}
OS:WindowMaterial:SimpleGlazingSystem,
  {e3ffa743-91f5-4f16-9e47-5351899ee40f}, !- Handle
  CLIMALIT PLUS con COOL LITE SKN 074 F2 6 (16 argon90%) 44.2 DIAMANT, !- Name
  1.1,                                    !- U-Factor {W/m2-K}
  0.42,                                    !- Solar Heat Gain Coefficient
  0.69;                                    !- Visible Transmittance     
  
  
OS:Construction,
  {68a73fb8-7e31-4517-97b1-1a89665b10f8}, !- Handle
  CLIMALIT PLUS con COOL LITE SKN 074 F2 6 (16 argon90%) 44.2 DIAMANT,                         !- Name
  ,                                       !- Surface Rendering Name
  {e3ffa743-91f5-4f16-9e47-5351899ee40f}; !- Layer 1  

