
OS:Version,
  {c4f283d0-12e9-4cb0-bee9-ce47f07c82f2}, ! Handle
  0.9.3;                                  ! Version Identifier

OS:Construction,
  {cc1aff30-6d7e-48f3-b467-156793006693}, ! Handle
  AEDG-SmOffice 4B Window Fixed,          ! Name
  ,                                       ! Surface Rendering Name
  {71cc2866-67a4-423b-8a03-42aadc69d5ad}; ! Layer 1

OS:WindowMaterial:Glazing,
  {71cc2866-67a4-423b-8a03-42aadc69d5ad}, ! Handle
  Theoretical Glass [233],                ! Name
  SpectralAverage,                        ! Optical Data Type
  ,                                       ! Window Glass Spectral Data Set Name
  0.003,                                  ! Thickness {m}
  0.454257,                               ! Solar Transmittance at Normal Incidence
  0.495743,                               ! Front Side Solar Reflectance at Normal Incidence
  0.495743,                               ! Back Side Solar Reflectance at Normal Incidence
  0.493419,                               ! Visible Transmittance at Normal Incidence
  0.456581,                               ! Front Side Visible Reflectance at Normal Incidence
  0.456581,                               ! Back Side Visible Reflectance at Normal Incidence
  0,                                      ! Infrared Transmittance at Normal Incidence
  0.9,                                    ! Front Side Infrared Hemispherical Emissivity
  0.9,                                    ! Back Side Infrared Hemispherical Emissivity
  0.0116221;                              ! Conductivity {W/m-K}

OS:ComponentCost:LineItem,
  {8d088507-5da3-40ae-8817-3d2d739a9161}, ! Handle
  AEDG-SmOffice 4B Window Fixed,          ! Name
  ,                                       ! Type
  Construction,                           ! Line Item Type
  AEDG-SmOffice 4B Window Fixed,          ! Item Name
  ,                                       ! Object End Use Key
  ,                                       ! Quantity {dimensionless}
  546.13,                                 ! Material Cost {$}
  CostPerArea;                            ! Material Cost Units

OS:ComponentData,
  {08aed810-ff22-482b-b00f-15f11bae7cb2}, ! Handle
  Component Data 1,                       ! Name
  {6f553105-7e50-4960-9a0e-6d5c2f698495}, ! UUID
  {83e86141-e489-4370-ad2b-284171dd5a11}, ! Version UUID
  1363981953,                             ! Creation Timestamp
  1363981953,                             ! Version Timestamp
  {cc1aff30-6d7e-48f3-b467-156793006693}, ! Name of Object 1
  {71cc2866-67a4-423b-8a03-42aadc69d5ad}, ! Name of Object 2
  {8d088507-5da3-40ae-8817-3d2d739a9161}; ! Name of Object 3

