
OS:Version,
  {ecdb7a07-e8e4-4b2a-917a-ad38c42f375a}, ! Handle
  0.9.3;                                  ! Version Identifier

OS:ComponentCost:LineItem,
  {9d3c2441-14b5-45db-b5d2-933d5a740f79}, ! Handle
  Title 24-2008 Nonres 16 Door Swinging,  ! Name
  ,                                       ! Type
  Construction,                           ! Line Item Type
  Title 24-2008 Nonres 16 Door Swinging,  ! Item Name
  ,                                       ! Object End Use Key
  ,                                       ! Quantity {dimensionless}
  0,                                      ! Material Cost {$}
  CostPerArea;                            ! Material Cost Units

OS:Construction,
  {4535dee5-ef03-45da-ad80-b580f0293f9f}, ! Handle
  Title 24-2008 Nonres 16 Door Swinging,  ! Name
  ,                                       ! Surface Rendering Name
  {2daaa059-2ba2-4ce6-a55c-618d202e73a9}, ! Layer 1
  {a37610f1-de58-40b7-bb11-edcb164a21f5}, ! Layer 2
  {becac7e0-9b57-4212-bbb2-6fede3f1d138}; ! Layer 3

OS:Material,
  {2daaa059-2ba2-4ce6-a55c-618d202e73a9}, ! Handle
  METAL Door Medium 18Ga_1,               ! Name
  Smooth,                                 ! Roughness
  0.0013106,                              ! Thickness {m}
  45.3149,                                ! Conductivity {W/m-K}
  7833.03,                                ! Density {kg/m3}
  502.08,                                 ! Specific Heat {J/kg-K}
  0.8,                                    ! Thermal Absorptance
  0.5,                                    ! Solar Absorptance
  0.5;                                    ! Visible Absorptance

OS:Material:NoMass,
  {a37610f1-de58-40b7-bb11-edcb164a21f5}, ! Handle
  AIR [15],                               ! Name
  Smooth,                                 ! Roughness
  0.251781,                               ! Thermal Resistance {m2-K/W}
  0.8,                                    ! Thermal Absorptance
  0.5,                                    ! Solar Absorptance
  0.5;                                    ! Visible Absorptance

OS:Material,
  {becac7e0-9b57-4212-bbb2-6fede3f1d138}, ! Handle
  METAL Door Medium 18Ga_2,               ! Name
  Smooth,                                 ! Roughness
  0.0013106,                              ! Thickness {m}
  45.3149,                                ! Conductivity {W/m-K}
  7833.03,                                ! Density {kg/m3}
  502.08,                                 ! Specific Heat {J/kg-K}
  0.8,                                    ! Thermal Absorptance
  0.5,                                    ! Solar Absorptance
  0.5;                                    ! Visible Absorptance

