
OS:Version,
  {1e704e35-72f1-4602-9ba4-a11d1c132528}, ! Handle
  0.9.3;                                  ! Version Identifier

OS:Construction,
  {fd3e2186-51a5-4260-90fd-29fe9ad0f597}, ! Handle
  90.1-1999 Res B4 Ext Wall Metal Building, ! Name
  ,                                       ! Surface Rendering Name
  {da54bd8b-b89a-474e-be9e-d1e5ff5e9780}, ! Layer 1
  {52dbf99c-a21e-4da6-bb37-5d7ede27807d}, ! Layer 2
  {c0747e4b-2efc-4880-91c3-90149005ca26}; ! Layer 3

OS:Material,
  {da54bd8b-b89a-474e-be9e-d1e5ff5e9780}, ! Handle
  Metal Siding,                           ! Name
  Smooth,                                 ! Roughness
  0.0015,                                 ! Thickness {m}
  44.96,                                  ! Conductivity {W/m-K}
  7688.86,                                ! Density {kg/m3}
  410,                                    ! Specific Heat {J/kg-K}
  0.9,                                    ! Thermal Absorptance
  0.2,                                    ! Solar Absorptance
  0.2;                                    ! Visible Absorptance

OS:Material,
  {52dbf99c-a21e-4da6-bb37-5d7ede27807d}, ! Handle
  Wall Insulation [3],                    ! Name
  MediumRough,                            ! Roughness
  0.0541893,                              ! Thickness {m}
  0.045,                                  ! Conductivity {W/m-K}
  265,                                    ! Density {kg/m3}
  836.8,                                  ! Specific Heat {J/kg-K}
  0.9,                                    ! Thermal Absorptance
  0.7,                                    ! Solar Absorptance
  0.7;                                    ! Visible Absorptance

OS:Material,
  {c0747e4b-2efc-4880-91c3-90149005ca26}, ! Handle
  1/2IN Gypsum,                           ! Name
  Smooth,                                 ! Roughness
  0.01271,                                ! Thickness {m}
  0.16,                                   ! Conductivity {W/m-K}
  784.9,                                  ! Density {kg/m3}
  830,                                    ! Specific Heat {J/kg-K}
  0.9,                                    ! Thermal Absorptance
  0.92,                                   ! Solar Absorptance
  0.92;                                   ! Visible Absorptance

OS:ComponentCost:LineItem,
  {4a91cb20-8150-4906-82dd-2fa76238d470}, ! Handle
  90.1-1999 Res B4 Ext Wall Metal Building, ! Name
  ,                                       ! Type
  Construction,                           ! Line Item Type
  90.1-1999 Res B4 Ext Wall Metal Building, ! Item Name
  ,                                       ! Object End Use Key
  ,                                       ! Quantity {dimensionless}
  98.719,                                 ! Material Cost {$}
  CostPerArea;                            ! Material Cost Units

OS:ComponentData,
  {cc473b96-b8a2-4b5d-bca6-6060a86a2ab4}, ! Handle
  Component Data 1,                       ! Name
  {8fd1cef8-f044-4831-8d1a-59da0e28996e}, ! UUID
  {ae2a2881-129a-41c4-aac1-55d1c99863fe}, ! Version UUID
  1363981177,                             ! Creation Timestamp
  1363981177,                             ! Version Timestamp
  {fd3e2186-51a5-4260-90fd-29fe9ad0f597}, ! Name of Object 1
  {da54bd8b-b89a-474e-be9e-d1e5ff5e9780}, ! Name of Object 2
  {52dbf99c-a21e-4da6-bb37-5d7ede27807d}, ! Name of Object 3
  {c0747e4b-2efc-4880-91c3-90149005ca26}, ! Name of Object 4
  {4a91cb20-8150-4906-82dd-2fa76238d470}; ! Name of Object 5

