
OS:Version,
  {bdc66956-b8ce-4369-8312-eb0a7557baff}, ! Handle
  0.9.3;                                  ! Version Identifier

OS:Material:NoMass,
  {c8ac6ad6-f7b4-4768-ab6f-b881fc6fb372}, ! Handle
  MAT-SHEATH,                             ! Name
  Rough,                                  ! Roughness
  0.36256,                                ! Thermal Resistance {m2-K/W}
  0.9,                                    ! Thermal Absorptance
  0.7,                                    ! Solar Absorptance
  0.7;                                    ! Visible Absorptance

OS:Material,
  {a961e8a6-8468-45a8-b758-5f9aab312cd8}, ! Handle
  Wall Insulation [6],                    ! Name
  MediumRough,                            ! Roughness
  0.0678449,                              ! Thickness {m}
  0.045,                                  ! Conductivity {W/m-K}
  265,                                    ! Density {kg/m3}
  836.8,                                  ! Specific Heat {J/kg-K}
  0.9,                                    ! Thermal Absorptance
  0.7,                                    ! Solar Absorptance
  0.7;                                    ! Visible Absorptance

OS:ComponentCost:LineItem,
  {37a54b1e-ac8f-472b-9967-3cbace69cf2a}, ! Handle
  90.1-2001 Nonres B19 Ext Wall Steel-Framed, ! Name
  ,                                       ! Type
  Construction,                           ! Line Item Type
  90.1-2001 Nonres B19 Ext Wall Steel-Framed, ! Item Name
  ,                                       ! Object End Use Key
  ,                                       ! Quantity {dimensionless}
  91.749,                                 ! Material Cost {$}
  CostPerArea;                            ! Material Cost Units

OS:Construction,
  {82e82aeb-aa66-406b-9577-715af49bb7ee}, ! Handle
  90.1-2001 Nonres B19 Ext Wall Steel-Framed, ! Name
  ,                                       ! Surface Rendering Name
  {c8ac6ad6-f7b4-4768-ab6f-b881fc6fb372}, ! Layer 1
  {a961e8a6-8468-45a8-b758-5f9aab312cd8}, ! Layer 2
  {8520e992-80cd-4b64-9f8a-c8f9e883e8e3}; ! Layer 3

OS:Material,
  {8520e992-80cd-4b64-9f8a-c8f9e883e8e3}, ! Handle
  1/2IN Gypsum,                           ! Name
  Smooth,                                 ! Roughness
  0.01271,                                ! Thickness {m}
  0.16,                                   ! Conductivity {W/m-K}
  784.9,                                  ! Density {kg/m3}
  830,                                    ! Specific Heat {J/kg-K}
  0.9,                                    ! Thermal Absorptance
  0.92,                                   ! Solar Absorptance
  0.92;                                   ! Visible Absorptance

