
OS:Version,
  {50282741-7362-4755-a9c6-370d476ef9ea}, ! Handle
  0.9.3;                                  ! Version Identifier

OS:Construction,
  {5e8664ac-f359-4fc8-80e8-498e88ea3108}, ! Handle
  Title 24-2008 Nonres 12 Attic Floor,    ! Name
  ,                                       ! Surface Rendering Name
  {043d305a-3002-46b6-8362-dab0475df4db}, ! Layer 1
  {aca18f98-3773-49e0-91b5-004e8ad3841d}, ! Layer 2
  {89400fb5-b68d-4cd8-a504-778ca22338e3}; ! Layer 3

OS:Material,
  {043d305a-3002-46b6-8362-dab0475df4db}, ! Handle
  1/2IN Gypsum Top,                       ! Name
  Smooth,                                 ! Roughness
  0.01271,                                ! Thickness {m}
  0.16,                                   ! Conductivity {W/m-K}
  784.9,                                  ! Density {kg/m3}
  830,                                    ! Specific Heat {J/kg-K}
  0.9,                                    ! Thermal Absorptance
  0.92,                                   ! Solar Absorptance
  0.92;                                   ! Visible Absorptance

OS:Material,
  {aca18f98-3773-49e0-91b5-004e8ad3841d}, ! Handle
  AtticFloor Insulation [49],             ! Name
  MediumRough,                            ! Roughness
  0.205862,                               ! Thickness {m}
  0.049,                                  ! Conductivity {W/m-K}
  265,                                    ! Density {kg/m3}
  836.8,                                  ! Specific Heat {J/kg-K}
  0.9,                                    ! Thermal Absorptance
  0.7,                                    ! Solar Absorptance
  0.7;                                    ! Visible Absorptance

OS:Material,
  {89400fb5-b68d-4cd8-a504-778ca22338e3}, ! Handle
  1/2IN Gypsum Bottom,                    ! Name
  Smooth,                                 ! Roughness
  0.01271,                                ! Thickness {m}
  0.16,                                   ! Conductivity {W/m-K}
  784.9,                                  ! Density {kg/m3}
  830,                                    ! Specific Heat {J/kg-K}
  0.9,                                    ! Thermal Absorptance
  0.92,                                   ! Solar Absorptance
  0.92;                                   ! Visible Absorptance

OS:ComponentCost:LineItem,
  {9ee9d675-48ea-4d7b-a92e-1c6913ccd836}, ! Handle
  Title 24-2008 Nonres 12 Attic Floor,    ! Name
  ,                                       ! Type
  Construction,                           ! Line Item Type
  Title 24-2008 Nonres 12 Attic Floor,    ! Item Name
  ,                                       ! Object End Use Key
  ,                                       ! Quantity {dimensionless}
  33.117,                                 ! Material Cost {$}
  CostPerArea;                            ! Material Cost Units

OS:ComponentData,
  {ac9aa7bc-b613-4ee2-998a-102f5d0ab351}, ! Handle
  Component Data 1,                       ! Name
  {b2e3c319-91a4-490d-a1b8-edc7708d5da1}, ! UUID
  {e7a6e788-3c2d-4d2a-b25e-8d0833a54fa5}, ! Version UUID
  1363982078,                             ! Creation Timestamp
  1363982078,                             ! Version Timestamp
  {5e8664ac-f359-4fc8-80e8-498e88ea3108}, ! Name of Object 1
  {043d305a-3002-46b6-8362-dab0475df4db}, ! Name of Object 2
  {aca18f98-3773-49e0-91b5-004e8ad3841d}, ! Name of Object 3
  {89400fb5-b68d-4cd8-a504-778ca22338e3}, ! Name of Object 4
  {9ee9d675-48ea-4d7b-a92e-1c6913ccd836}; ! Name of Object 5

