
OS:Version,
  {7cc616fa-fcbf-4753-be73-02d6671a25b0}, ! Handle
  0.9.3;                                  ! Version Identifier

OS:ComponentCost:LineItem,
  {4dfc0ca3-4599-488d-a2eb-47b247594915}, ! Handle
  Title 24-2008 Nonres 12 Attic Floor,    ! Name
  ,                                       ! Type
  Construction,                           ! Line Item Type
  Title 24-2008 Nonres 12 Attic Floor,    ! Item Name
  ,                                       ! Object End Use Key
  ,                                       ! Quantity {dimensionless}
  33.117,                                 ! Material Cost {$}
  CostPerArea;                            ! Material Cost Units

OS:Construction,
  {eba2fbbf-3250-4bfb-aa2e-d8363640f1fe}, ! Handle
  Title 24-2008 Nonres 12 Attic Floor,    ! Name
  ,                                       ! Surface Rendering Name
  {02a26987-253f-4daf-9267-4fa02fe2c32b}, ! Layer 1
  {24676864-9e22-474e-be3b-27c7e112f599}, ! Layer 2
  {7bf864bd-1a4c-4c01-bfbe-a5bceac7c2ce}; ! Layer 3

OS:Material,
  {02a26987-253f-4daf-9267-4fa02fe2c32b}, ! Handle
  1/2IN Gypsum Top,                       ! Name
  Smooth,                                 ! Roughness
  0.01271,                                ! Thickness {m}
  0.16,                                   ! Conductivity {W/m-K}
  784.9,                                  ! Density {kg/m3}
  830,                                    ! Specific Heat {J/kg-K}
  0.9,                                    ! Thermal Absorptance
  0.92,                                   ! Solar Absorptance
  0.92;                                   ! Visible Absorptance

OS:Material,
  {24676864-9e22-474e-be3b-27c7e112f599}, ! Handle
  AtticFloor Insulation [49],             ! Name
  MediumRough,                            ! Roughness
  0.205862,                               ! Thickness {m}
  0.049,                                  ! Conductivity {W/m-K}
  265,                                    ! Density {kg/m3}
  836.8,                                  ! Specific Heat {J/kg-K}
  0.9,                                    ! Thermal Absorptance
  0.7,                                    ! Solar Absorptance
  0.7;                                    ! Visible Absorptance

OS:Material,
  {7bf864bd-1a4c-4c01-bfbe-a5bceac7c2ce}, ! Handle
  1/2IN Gypsum Bottom,                    ! Name
  Smooth,                                 ! Roughness
  0.01271,                                ! Thickness {m}
  0.16,                                   ! Conductivity {W/m-K}
  784.9,                                  ! Density {kg/m3}
  830,                                    ! Specific Heat {J/kg-K}
  0.9,                                    ! Thermal Absorptance
  0.92,                                   ! Solar Absorptance
  0.92;                                   ! Visible Absorptance

