
OS:Version,
  {fc01c1e8-e589-4095-be95-eade9ec6f6e6}, ! Handle
  0.9.3;                                  ! Version Identifier

OS:Material,
  {dc49727d-b0ac-4428-a1fe-b122723a9de3}, ! Handle
  Metal Roofing,                          ! Name
  MediumSmooth,                           ! Roughness
  0.001524,                               ! Thickness {m}
  45.006,                                 ! Conductivity {W/m-K}
  7680,                                   ! Density {kg/m3}
  418.4,                                  ! Specific Heat {J/kg-K}
  0.9,                                    ! Thermal Absorptance
  0.7,                                    ! Solar Absorptance
  0.3;                                    ! Visible Absorptance

OS:ComponentCost:LineItem,
  {4b0a0827-fea3-4f4e-89c2-115bf43f0101}, ! Handle
  189.1-2009 Res 8A Roof Metal Building,  ! Name
  ,                                       ! Type
  Construction,                           ! Line Item Type
  189.1-2009 Res 8A Roof Metal Building,  ! Item Name
  ,                                       ! Object End Use Key
  ,                                       ! Quantity {dimensionless}
  51.833,                                 ! Material Cost {$}
  CostPerArea;                            ! Material Cost Units

OS:Material,
  {27d1497a-a6a9-482d-a0d0-0d6f79725be3}, ! Handle
  Roof Insulation [27],                   ! Name
  MediumRough,                            ! Roughness
  0.297033,                               ! Thickness {m}
  0.049,                                  ! Conductivity {W/m-K}
  265,                                    ! Density {kg/m3}
  836.8,                                  ! Specific Heat {J/kg-K}
  0.9,                                    ! Thermal Absorptance
  0.7,                                    ! Solar Absorptance
  0.7;                                    ! Visible Absorptance

OS:Construction,
  {1060a367-112d-4bb6-8f0b-915a38ff6b17}, ! Handle
  189.1-2009 Res 8A Roof Metal Building,  ! Name
  ,                                       ! Surface Rendering Name
  {dc49727d-b0ac-4428-a1fe-b122723a9de3}, ! Layer 1
  {27d1497a-a6a9-482d-a0d0-0d6f79725be3}; ! Layer 2

