
OS:Version,
  {d3aae358-92f8-4dde-8400-487db0eace9a}, ! Handle
  0.9.3;                                  ! Version Identifier

OS:Construction,
  {fe53c8f2-144a-4b18-bc2e-b8a7d48d35ce}, ! Handle
  189.1-2009 Nonres 3A Ext Slab Unheated - 4in Slab without Carpet, ! Name
  ,                                       ! Surface Rendering Name
  {b676af3b-8dcf-4dad-a8b9-052484216fbf}; ! Layer 1

OS:Material,
  {b676af3b-8dcf-4dad-a8b9-052484216fbf}, ! Handle
  MAT-CC05 4 HW CONCRETE,                 ! Name
  Rough,                                  ! Roughness
  0.1016,                                 ! Thickness {m}
  1.311,                                  ! Conductivity {W/m-K}
  2240,                                   ! Density {kg/m3}
  836.8,                                  ! Specific Heat {J/kg-K}
  0.9,                                    ! Thermal Absorptance
  0.7,                                    ! Solar Absorptance
  0.7;                                    ! Visible Absorptance

OS:ComponentCost:LineItem,
  {c777daf4-8bc5-4e22-ad0d-f6c5648afa37}, ! Handle
  189.1-2009 Nonres 3A Ext Slab Unheated - 4in Slab without Carpet, ! Name
  ,                                       ! Type
  Construction,                           ! Line Item Type
  189.1-2009 Nonres 3A Ext Slab Unheated - 4in Slab without Carpet, ! Item Name
  ,                                       ! Object End Use Key
  ,                                       ! Quantity {dimensionless}
  45.52,                                  ! Material Cost {$}
  CostPerArea;                            ! Material Cost Units

OS:ComponentData,
  {9e4a95bf-d74f-47c9-979f-315f50b3dcac}, ! Handle
  Component Data 1,                       ! Name
  {e8095f97-1be3-4f76-9599-6a886a3a6b17}, ! UUID
  {594f344b-56b5-4915-afd0-b2d79dd61535}, ! Version UUID
  1363980936,                             ! Creation Timestamp
  1363980936,                             ! Version Timestamp
  {fe53c8f2-144a-4b18-bc2e-b8a7d48d35ce}, ! Name of Object 1
  {b676af3b-8dcf-4dad-a8b9-052484216fbf}, ! Name of Object 2
  {c777daf4-8bc5-4e22-ad0d-f6c5648afa37}; ! Name of Object 3

