
OS:Version,
  {4f23a14e-bcaf-4d44-be07-064328a40680}, !- Handle
  1.0.6;                                  !- Version Identifier

OS:WindowMaterial:Glazing,
  {2193eda3-2635-44ab-87c4-22ad4c3d89d6}, !- Handle
  189.1-2011 NONRES 2A NONMETAL FRAMING THEORETICAL GLAZING, !- Name
  SpectralAverage,                        !- Optical Data Type
  ,                                       !- Window Glass Spectral Data Set Name
  0.002,                                  !- Thickness {m}
  0.12088,                                !- Solar Transmittance at Normal Incidence
  0.4957,                                 !- Front Side Solar Reflectance at Normal Incidence
  0.4957,                                 !- Back Side Solar Reflectance at Normal Incidence
  0.12088,                                !- Visible Transmittance at Normal Incidence
  0.4957,                                 !- Front Side Visible Reflectance at Normal Incidence
  0.4957,                                 !- Back Side Visible Reflectance at Normal Incidence
  0,                                      !- Infrared Transmittance at Normal Incidence
  0.84,                                   !- Front Side Infrared Hemispherical Emissivity
  0.84,                                   !- Back Side Infrared Hemispherical Emissivity
  0.02998,                                !- Conductivity {W/m-K}
  1,                                      !- Dirt Correction Factor for Solar and Visible Transmittance
  No;                                     !- Solar Diffusing

OS:Construction,
  {53ce8a8a-00b8-41b3-a0d9-e8ff757d5d3a}, !- Handle
  189.1-2011 NONRES 2A NONMETAL FRAMING,  !- Name
  ,                                       !- Surface Rendering Name
  {2193eda3-2635-44ab-87c4-22ad4c3d89d6}; !- Layer 1

