
OS:Version,
  {13de1d45-4e2d-47aa-8f3b-5d3f7b28f548}, !- Handle
  1.0.6;                                  !- Version Identifier

OS:Construction,
  {f65b3f49-b91e-4a5c-a1fd-e65ddecac986}, !- Handle
  189.1-2011 NONRES 2A NONMETAL FRAMING,  !- Name
  ,                                       !- Surface Rendering Name
  {43877d06-d78a-4a60-a694-aaac92e83432}; !- Layer 1

OS:WindowMaterial:Glazing,
  {43877d06-d78a-4a60-a694-aaac92e83432}, !- Handle
  189.1-2011 NONRES 2A NONMETAL FRAMING THEORETICAL GLAZING, !- Name
  SpectralAverage,                        !- Optical Data Type
  ,                                       !- Window Glass Spectral Data Set Name
  0.002,                                  !- Thickness {m}
  0.12088,                                !- Solar Transmittance at Normal Incidence
  0.4957,                                 !- Front Side Solar Reflectance at Normal Incidence
  0.4957,                                 !- Back Side Solar Reflectance at Normal Incidence
  0.12088,                                !- Visible Transmittance at Normal Incidence
  0.4957,                                 !- Front Side Visible Reflectance at Normal Incidence
  0.4957,                                 !- Back Side Visible Reflectance at Normal Incidence
  0,                                      !- Infrared Transmittance at Normal Incidence
  0.84,                                   !- Front Side Infrared Hemispherical Emissivity
  0.84,                                   !- Back Side Infrared Hemispherical Emissivity
  0.02998,                                !- Conductivity {W/m-K}
  1,                                      !- Dirt Correction Factor for Solar and Visible Transmittance
  No;                                     !- Solar Diffusing

OS:ComponentData,
  {7e239479-3d31-4c7a-8da3-6e294bc9f247}, !- Handle
  Component Data 1,                       !- Name
  {c5942e23-38d3-49c7-9072-8ba0fa33e2b4}, !- UUID
  {5b5f27e4-e6af-42ac-92dd-245530790d36}, !- Version UUID
  1380911254,                             !- Creation Timestamp
  1380911254,                             !- Version Timestamp
  {f65b3f49-b91e-4a5c-a1fd-e65ddecac986}, !- Name of Object 1
  {43877d06-d78a-4a60-a694-aaac92e83432}; !- Name of Object 2

