
OS:Version,
  {89171955-bb67-4f71-b359-27e150b8f608}, ! Handle
  0.9.3;                                  ! Version Identifier

OS:Construction,
  {29e1b49a-4781-4fb3-9d44-11a575822c60}, ! Handle
  Title 24-2008 Nonres 14 Attic Floor,    ! Name
  ,                                       ! Surface Rendering Name
  {8aba427d-832a-4bb4-ad98-45bbaea5078a}, ! Layer 1
  {d3551d30-cdcb-4c78-b87c-64ac5436c75f}, ! Layer 2
  {b5ebb047-e053-4326-81b1-2404665f57fa}; ! Layer 3

OS:Material,
  {8aba427d-832a-4bb4-ad98-45bbaea5078a}, ! Handle
  1/2IN Gypsum Top,                       ! Name
  Smooth,                                 ! Roughness
  0.01271,                                ! Thickness {m}
  0.16,                                   ! Conductivity {W/m-K}
  784.9,                                  ! Density {kg/m3}
  830,                                    ! Specific Heat {J/kg-K}
  0.9,                                    ! Thermal Absorptance
  0.92,                                   ! Solar Absorptance
  0.92;                                   ! Visible Absorptance

OS:Material,
  {d3551d30-cdcb-4c78-b87c-64ac5436c75f}, ! Handle
  AtticFloor Insulation [49],             ! Name
  MediumRough,                            ! Roughness
  0.205862,                               ! Thickness {m}
  0.049,                                  ! Conductivity {W/m-K}
  265,                                    ! Density {kg/m3}
  836.8,                                  ! Specific Heat {J/kg-K}
  0.9,                                    ! Thermal Absorptance
  0.7,                                    ! Solar Absorptance
  0.7;                                    ! Visible Absorptance

OS:Material,
  {b5ebb047-e053-4326-81b1-2404665f57fa}, ! Handle
  1/2IN Gypsum Bottom,                    ! Name
  Smooth,                                 ! Roughness
  0.01271,                                ! Thickness {m}
  0.16,                                   ! Conductivity {W/m-K}
  784.9,                                  ! Density {kg/m3}
  830,                                    ! Specific Heat {J/kg-K}
  0.9,                                    ! Thermal Absorptance
  0.92,                                   ! Solar Absorptance
  0.92;                                   ! Visible Absorptance

OS:ComponentCost:LineItem,
  {30133c22-d525-4142-bb56-f2fdf9b58f02}, ! Handle
  Title 24-2008 Nonres 14 Attic Floor,    ! Name
  ,                                       ! Type
  Construction,                           ! Line Item Type
  Title 24-2008 Nonres 14 Attic Floor,    ! Item Name
  ,                                       ! Object End Use Key
  ,                                       ! Quantity {dimensionless}
  33.117,                                 ! Material Cost {$}
  CostPerArea;                            ! Material Cost Units

