
OS:Version,
  {4dc17dc1-114e-48e5-900c-d95e88d8c356}, ! Handle
  0.9.3;                                  ! Version Identifier

OS:WindowMaterial:Glazing,
  {5bfcb0e9-9931-4a0a-b1d7-fda60cf786d0}, ! Handle
  Theoretical Glass [189],                ! Name
  SpectralAverage,                        ! Optical Data Type
  ,                                       ! Window Glass Spectral Data Set Name
  0.003,                                  ! Thickness {m}
  0.444641,                               ! Solar Transmittance at Normal Incidence
  0.505359,                               ! Front Side Solar Reflectance at Normal Incidence
  0.505359,                               ! Back Side Solar Reflectance at Normal Incidence
  0.450308,                               ! Visible Transmittance at Normal Incidence
  0.499692,                               ! Front Side Visible Reflectance at Normal Incidence
  0.499692,                               ! Back Side Visible Reflectance at Normal Incidence
  0,                                      ! Infrared Transmittance at Normal Incidence
  0.9,                                    ! Front Side Infrared Hemispherical Emissivity
  0.9,                                    ! Back Side Infrared Hemispherical Emissivity
  0.0107657;                              ! Conductivity {W/m-K}

OS:ComponentCost:LineItem,
  {2d8c03cb-9154-47c5-939e-1c5edf405ea9}, ! Handle
  90.1-2007 Nonres 7A Window Metal framing curtainwall-storefront, ! Name
  ,                                       ! Type
  Construction,                           ! Line Item Type
  90.1-2007 Nonres 7A Window Metal framing curtainwall-storefront, ! Item Name
  ,                                       ! Object End Use Key
  ,                                       ! Quantity {dimensionless}
  508.362,                                ! Material Cost {$}
  CostPerArea;                            ! Material Cost Units

OS:Construction,
  {c4d33b7a-3084-4cfd-a791-8ed180458308}, ! Handle
  90.1-2007 Nonres 7A Window Metal framing curtainwall-storefront, ! Name
  ,                                       ! Surface Rendering Name
  {5bfcb0e9-9931-4a0a-b1d7-fda60cf786d0}; ! Layer 1

