
OS:Version,
  {5cdede95-b2fb-4933-b31b-0867891cc3ec}, ! Handle
  0.9.3;                                  ! Version Identifier

OS:ComponentCost:LineItem,
  {f60a70bf-507e-4095-b61d-d27b2a910de4}, ! Handle
  90.1-2004 Res 1A Ext Wall Wood-Framed and Other, ! Name
  ,                                       ! Type
  Construction,                           ! Line Item Type
  90.1-2004 Res 1A Ext Wall Wood-Framed and Other, ! Item Name
  ,                                       ! Object End Use Key
  ,                                       ! Quantity {dimensionless}
  73.056,                                 ! Material Cost {$}
  CostPerArea;                            ! Material Cost Units

OS:Construction,
  {cc9fa5e4-fa57-4743-bb05-a6a9de500722}, ! Handle
  90.1-2004 Res 1A Ext Wall Wood-Framed and Other, ! Name
  ,                                       ! Surface Rendering Name
  {02487bb5-b789-4424-9b89-0a02612cbed3}, ! Layer 1
  {1a5a936d-ef42-4707-b3e6-d8d2441e3b13}, ! Layer 2
  {92275eb7-b7e5-4abc-903b-fb815d24d755}; ! Layer 3

OS:Material,
  {02487bb5-b789-4424-9b89-0a02612cbed3}, ! Handle
  Wood Siding,                            ! Name
  MediumSmooth,                           ! Roughness
  0.01,                                   ! Thickness {m}
  0.11,                                   ! Conductivity {W/m-K}
  544.62,                                 ! Density {kg/m3}
  1210,                                   ! Specific Heat {J/kg-K}
  0.9,                                    ! Thermal Absorptance
  0.78,                                   ! Solar Absorptance
  0.78;                                   ! Visible Absorptance

OS:Material,
  {1a5a936d-ef42-4707-b3e6-d8d2441e3b13}, ! Handle
  Wall Insulation [2],                    ! Name
  MediumRough,                            ! Roughness
  0.0746874,                              ! Thickness {m}
  0.045,                                  ! Conductivity {W/m-K}
  265,                                    ! Density {kg/m3}
  836.8,                                  ! Specific Heat {J/kg-K}
  0.9,                                    ! Thermal Absorptance
  0.7,                                    ! Solar Absorptance
  0.7;                                    ! Visible Absorptance

OS:Material,
  {92275eb7-b7e5-4abc-903b-fb815d24d755}, ! Handle
  1/2IN Gypsum,                           ! Name
  Smooth,                                 ! Roughness
  0.01271,                                ! Thickness {m}
  0.16,                                   ! Conductivity {W/m-K}
  784.9,                                  ! Density {kg/m3}
  830,                                    ! Specific Heat {J/kg-K}
  0.9,                                    ! Thermal Absorptance
  0.92,                                   ! Solar Absorptance
  0.92;                                   ! Visible Absorptance

