
OS:Version,
  {2945751f-2585-4fb6-9b17-8430ea2bda1e}, ! Handle
  0.9.3;                                  ! Version Identifier

OS:Construction,
  {10e5198a-c0a6-40ad-95d0-f1a366fc8d25}, ! Handle
  Title 24-2008 Nonres 10 Ext Slab Unheated - 8in Slab with Carpet, ! Name
  ,                                       ! Surface Rendering Name
  {be5a1784-a5fc-4593-8de3-bc6e0e0bd968}, ! Layer 1
  {090f1e66-c856-481d-bf7f-a8ea20d944db}; ! Layer 2

OS:Material,
  {be5a1784-a5fc-4593-8de3-bc6e0e0bd968}, ! Handle
  MAT-CC05 8 HW CONCRETE,                 ! Name
  Rough,                                  ! Roughness
  0.20321,                                ! Thickness {m}
  1.311,                                  ! Conductivity {W/m-K}
  2240,                                   ! Density {kg/m3}
  836.8,                                  ! Specific Heat {J/kg-K}
  0.9,                                    ! Thermal Absorptance
  0.7,                                    ! Solar Absorptance
  0.7;                                    ! Visible Absorptance

OS:Material:NoMass,
  {090f1e66-c856-481d-bf7f-a8ea20d944db}, ! Handle
  CP02 CARPET PAD,                        ! Name
  VeryRough,                              ! Roughness
  0.21648,                                ! Thermal Resistance {m2-K/W}
  0.9,                                    ! Thermal Absorptance
  0.7,                                    ! Solar Absorptance
  0.8;                                    ! Visible Absorptance

OS:ComponentCost:LineItem,
  {8a143806-c746-4a5e-8bb1-6d620ada0687}, ! Handle
  Title 24-2008 Nonres 10 Ext Slab Unheated - 8in Slab with Carpet, ! Name
  ,                                       ! Type
  Construction,                           ! Line Item Type
  Title 24-2008 Nonres 10 Ext Slab Unheated - 8in Slab with Carpet, ! Item Name
  ,                                       ! Object End Use Key
  ,                                       ! Quantity {dimensionless}
  45.52,                                  ! Material Cost {$}
  CostPerArea;                            ! Material Cost Units

OS:ComponentData,
  {b4eba2f0-ff98-4054-91bf-6be49a4ccb10}, ! Handle
  Component Data 1,                       ! Name
  {97749d7e-7450-4796-8309-1f0335e99cb7}, ! UUID
  {785f0096-f82b-4379-943f-0b4055d857a1}, ! Version UUID
  1363982062,                             ! Creation Timestamp
  1363982062,                             ! Version Timestamp
  {10e5198a-c0a6-40ad-95d0-f1a366fc8d25}, ! Name of Object 1
  {be5a1784-a5fc-4593-8de3-bc6e0e0bd968}, ! Name of Object 2
  {090f1e66-c856-481d-bf7f-a8ea20d944db}, ! Name of Object 3
  {8a143806-c746-4a5e-8bb1-6d620ada0687}; ! Name of Object 4

