
OS:Version,
  {a7c28b6c-eb76-40a0-90be-f12d7c61a4eb}, ! Handle
  0.9.3;                                  ! Version Identifier

OS:Construction,
  {fe9c0f29-a165-4d45-af98-b9faa6863e5c}, ! Handle
  Title 24-2008 Nonres 10 Ext Slab Unheated - 8in Slab with Carpet, ! Name
  ,                                       ! Surface Rendering Name
  {3aebc290-4ce9-4872-8b7d-83cdf39efec9}, ! Layer 1
  {ffa28f74-f1a6-4682-a291-7e39bf91240b}; ! Layer 2

OS:Material,
  {3aebc290-4ce9-4872-8b7d-83cdf39efec9}, ! Handle
  MAT-CC05 8 HW CONCRETE,                 ! Name
  Rough,                                  ! Roughness
  0.20321,                                ! Thickness {m}
  1.311,                                  ! Conductivity {W/m-K}
  2240,                                   ! Density {kg/m3}
  836.8,                                  ! Specific Heat {J/kg-K}
  0.9,                                    ! Thermal Absorptance
  0.7,                                    ! Solar Absorptance
  0.7;                                    ! Visible Absorptance

OS:Material:NoMass,
  {ffa28f74-f1a6-4682-a291-7e39bf91240b}, ! Handle
  CP02 CARPET PAD,                        ! Name
  VeryRough,                              ! Roughness
  0.21648,                                ! Thermal Resistance {m2-K/W}
  0.9,                                    ! Thermal Absorptance
  0.7,                                    ! Solar Absorptance
  0.8;                                    ! Visible Absorptance

OS:ComponentCost:LineItem,
  {123ec252-8550-4c5c-b011-0a9ea945acc4}, ! Handle
  Title 24-2008 Nonres 10 Ext Slab Unheated - 8in Slab with Carpet, ! Name
  ,                                       ! Type
  Construction,                           ! Line Item Type
  Title 24-2008 Nonres 10 Ext Slab Unheated - 8in Slab with Carpet, ! Item Name
  ,                                       ! Object End Use Key
  ,                                       ! Quantity {dimensionless}
  45.52,                                  ! Material Cost {$}
  CostPerArea;                            ! Material Cost Units

