
OS:Version,
  {726a0485-506a-4720-b994-3f6aec29ab75}, ! Handle
  0.9.3;                                  ! Version Identifier

OS:Construction,
  {cb3b6e5d-e228-4709-9454-e34457e5b1cf}, ! Handle
  90.1 Windows Window Fixed 2313 Brk-Hpt-Std-Clr, ! Name
  ,                                       ! Surface Rendering Name
  {c64d94b6-6646-43af-8a07-5aa29fbe91bd}; ! Layer 1

OS:WindowMaterial:Glazing,
  {c64d94b6-6646-43af-8a07-5aa29fbe91bd}, ! Handle
  Theoretical Glass [356],                ! Name
  SpectralAverage,                        ! Optical Data Type
  ,                                       ! Window Glass Spectral Data Set Name
  0.003,                                  ! Thickness {m}
  0.392514,                               ! Solar Transmittance at Normal Incidence
  0.557486,                               ! Front Side Solar Reflectance at Normal Incidence
  0.557486,                               ! Back Side Solar Reflectance at Normal Incidence
  0.539295,                               ! Visible Transmittance at Normal Incidence
  0.410705,                               ! Front Side Visible Reflectance at Normal Incidence
  0.410705,                               ! Back Side Visible Reflectance at Normal Incidence
  0,                                      ! Infrared Transmittance at Normal Incidence
  0.9,                                    ! Front Side Infrared Hemispherical Emissivity
  0.9,                                    ! Back Side Infrared Hemispherical Emissivity
  0.0236463;                              ! Conductivity {W/m-K}

OS:ComponentCost:LineItem,
  {1129f3ae-f550-4510-ba90-f6d57df5e510}, ! Handle
  90.1 Windows Window Fixed 2313 Brk-Hpt-Std-Clr, ! Name
  ,                                       ! Type
  Construction,                           ! Line Item Type
  90.1 Windows Window Fixed 2313 Brk-Hpt-Std-Clr, ! Item Name
  ,                                       ! Object End Use Key
  ,                                       ! Quantity {dimensionless}
  0,                                      ! Material Cost {$}
  CostPerArea;                            ! Material Cost Units

