
OS:Version,
  {7afcadc5-de39-4ce3-8c38-9edbda12902d}, ! Handle
  0.9.3;                                  ! Version Identifier

OS:WindowMaterial:Glazing,
  {9c87f02b-6889-423d-a664-abad49e3418c}, ! Handle
  Theoretical Glass [146],                ! Name
  SpectralAverage,                        ! Optical Data Type
  ,                                       ! Window Glass Spectral Data Set Name
  0.003,                                  ! Thickness {m}
  0.481761,                               ! Solar Transmittance at Normal Incidence
  0.468239,                               ! Front Side Solar Reflectance at Normal Incidence
  0.468239,                               ! Back Side Solar Reflectance at Normal Incidence
  0.621562,                               ! Visible Transmittance at Normal Incidence
  0.328438,                               ! Front Side Visible Reflectance at Normal Incidence
  0.328438,                               ! Back Side Visible Reflectance at Normal Incidence
  0,                                      ! Infrared Transmittance at Normal Incidence
  0.9,                                    ! Front Side Infrared Hemispherical Emissivity
  0.9,                                    ! Back Side Infrared Hemispherical Emissivity
  0.03026;                                ! Conductivity {W/m-K}

OS:Construction,
  {bfcd7535-e3e4-43c0-bd27-87b0b1023b87}, ! Handle
  90.1-2007 Nonres 4B Skylight without Curb, ! Name
  ,                                       ! Surface Rendering Name
  {9c87f02b-6889-423d-a664-abad49e3418c}; ! Layer 1

OS:ComponentCost:LineItem,
  {824a0d92-e299-41fe-918d-6ac26c03624c}, ! Handle
  90.1-2007 Nonres 4B Skylight without Curb, ! Name
  ,                                       ! Type
  Construction,                           ! Line Item Type
  90.1-2007 Nonres 4B Skylight without Curb, ! Item Name
  ,                                       ! Object End Use Key
  ,                                       ! Quantity {dimensionless}
  508.47,                                 ! Material Cost {$}
  CostPerArea;                            ! Material Cost Units

