
OS:Version,
  {0f27dec6-1fa2-4d2f-8969-cdd1e4b189ae}, ! Handle
  0.9.3;                                  ! Version Identifier

OS:Construction,
  {a7b55aff-5ca8-4c02-8ef4-491d442208c4}, ! Handle
  90.1-2007 Nonres 4B Skylight without Curb, ! Name
  ,                                       ! Surface Rendering Name
  {fff962d2-9da3-47c8-beec-7698354df598}; ! Layer 1

OS:WindowMaterial:Glazing,
  {fff962d2-9da3-47c8-beec-7698354df598}, ! Handle
  Theoretical Glass [146],                ! Name
  SpectralAverage,                        ! Optical Data Type
  ,                                       ! Window Glass Spectral Data Set Name
  0.003,                                  ! Thickness {m}
  0.481761,                               ! Solar Transmittance at Normal Incidence
  0.468239,                               ! Front Side Solar Reflectance at Normal Incidence
  0.468239,                               ! Back Side Solar Reflectance at Normal Incidence
  0.621562,                               ! Visible Transmittance at Normal Incidence
  0.328438,                               ! Front Side Visible Reflectance at Normal Incidence
  0.328438,                               ! Back Side Visible Reflectance at Normal Incidence
  0,                                      ! Infrared Transmittance at Normal Incidence
  0.9,                                    ! Front Side Infrared Hemispherical Emissivity
  0.9,                                    ! Back Side Infrared Hemispherical Emissivity
  0.03026;                                ! Conductivity {W/m-K}

OS:ComponentCost:LineItem,
  {2ddfff0f-2c65-4dbc-95fa-38abbf373eaa}, ! Handle
  90.1-2007 Nonres 4B Skylight without Curb, ! Name
  ,                                       ! Type
  Construction,                           ! Line Item Type
  90.1-2007 Nonres 4B Skylight without Curb, ! Item Name
  ,                                       ! Object End Use Key
  ,                                       ! Quantity {dimensionless}
  508.47,                                 ! Material Cost {$}
  CostPerArea;                            ! Material Cost Units

OS:ComponentData,
  {fd3b71b2-1466-4f91-8c38-1140b9b73711}, ! Handle
  Component Data 1,                       ! Name
  {4180e402-1b32-49ee-9032-ed1e7d9775a1}, ! UUID
  {57fb94c8-c7c4-4dab-9fba-e0788e96316a}, ! Version UUID
  1363981805,                             ! Creation Timestamp
  1363981805,                             ! Version Timestamp
  {a7b55aff-5ca8-4c02-8ef4-491d442208c4}, ! Name of Object 1
  {fff962d2-9da3-47c8-beec-7698354df598}, ! Name of Object 2
  {2ddfff0f-2c65-4dbc-95fa-38abbf373eaa}; ! Name of Object 3

