
! 
OS:Version,
  {9c37d538-db0d-4a47-9850-5bede7e76bd5}, !- Handle
  1.13.0;                                 !- Version Identifier


! {"nombreProductoCorto": "CLIMALIT PLUS con PLANITHERM 4S F2 44.1 (16 argon90%)44.2", "codigoEAN": "", "handle": "768490e2-5247-4659-b7a6-cb44e39c69f5", "g": 0.4, "tV": 0.64, "u": 1.0, "nombreProducto": "CLIMALIT PLUS con PLANITHERM 4S F2 44.1 (16 argon90%)44.2\nU:1.0 W/m2K - g:0.40 - Tv: 0.64"}
OS:WindowMaterial:SimpleGlazingSystem,
  {768490e2-5247-4659-b7a6-cb44e39c69f5}, !- Handle
  CLIMALIT PLUS con PLANITHERM 4S F2 44.1 (16 argon90%)44.2, !- Name
  1.0,                                    !- U-Factor {W/m2-K}
  0.4,                                    !- Solar Heat Gain Coefficient
  0.64;                                    !- Visible Transmittance     
  
  
OS:Construction,
  {7c199f6b-bfb9-4fd4-b518-0fa26adec4e2}, !- Handle
  CLIMALIT PLUS con PLANITHERM 4S F2 44.1 (16 argon90%)44.2,                         !- Name
  ,                                       !- Surface Rendering Name
  {768490e2-5247-4659-b7a6-cb44e39c69f5}; !- Layer 1  

