
OS:Version,
  {935aed96-d129-4d44-8144-1114cd8e0819}, ! Handle
  0.9.3;                                  ! Version Identifier

OS:Construction,
  {e005f07c-85a8-4398-bed6-54a3b1f921e5}, ! Handle
  90.1-1999 Res B20 Ext Slab Unheated - 8in Slab without Carpet, ! Name
  ,                                       ! Surface Rendering Name
  {ff587c33-808d-4e80-be2d-613d9860fec8}; ! Layer 1

OS:Material,
  {ff587c33-808d-4e80-be2d-613d9860fec8}, ! Handle
  MAT-CC05 8 HW CONCRETE,                 ! Name
  Rough,                                  ! Roughness
  0.20321,                                ! Thickness {m}
  1.311,                                  ! Conductivity {W/m-K}
  2240,                                   ! Density {kg/m3}
  836.8,                                  ! Specific Heat {J/kg-K}
  0.9,                                    ! Thermal Absorptance
  0.7,                                    ! Solar Absorptance
  0.7;                                    ! Visible Absorptance

OS:ComponentCost:LineItem,
  {bae49623-f319-4751-95e6-9e809e30a043}, ! Handle
  90.1-1999 Res B20 Ext Slab Unheated - 8in Slab without Carpet, ! Name
  ,                                       ! Type
  Construction,                           ! Line Item Type
  90.1-1999 Res B20 Ext Slab Unheated - 8in Slab without Carpet, ! Item Name
  ,                                       ! Object End Use Key
  ,                                       ! Quantity {dimensionless}
  45.52,                                  ! Material Cost {$}
  CostPerArea;                            ! Material Cost Units

