
OS:Version,
  {24d4ee38-db8e-428f-9244-cf1b8c33a32e}, ! Handle
  0.9.3;                                  ! Version Identifier

OS:Construction,
  {7c8e5cb2-9e6f-4c75-9ac2-6b3374b3cd5e}, ! Handle
  90.1-1999 Res B20 Ext Slab Unheated - 8in Slab without Carpet, ! Name
  ,                                       ! Surface Rendering Name
  {617332b0-b8e3-4342-afca-dd976f1a2276}; ! Layer 1

OS:Material,
  {617332b0-b8e3-4342-afca-dd976f1a2276}, ! Handle
  MAT-CC05 8 HW CONCRETE,                 ! Name
  Rough,                                  ! Roughness
  0.20321,                                ! Thickness {m}
  1.311,                                  ! Conductivity {W/m-K}
  2240,                                   ! Density {kg/m3}
  836.8,                                  ! Specific Heat {J/kg-K}
  0.9,                                    ! Thermal Absorptance
  0.7,                                    ! Solar Absorptance
  0.7;                                    ! Visible Absorptance

OS:ComponentCost:LineItem,
  {adf88a0c-0be4-48cd-864a-d6640f7c73b2}, ! Handle
  90.1-1999 Res B20 Ext Slab Unheated - 8in Slab without Carpet, ! Name
  ,                                       ! Type
  Construction,                           ! Line Item Type
  90.1-1999 Res B20 Ext Slab Unheated - 8in Slab without Carpet, ! Item Name
  ,                                       ! Object End Use Key
  ,                                       ! Quantity {dimensionless}
  45.52,                                  ! Material Cost {$}
  CostPerArea;                            ! Material Cost Units

OS:ComponentData,
  {e76a5210-1efd-4bd2-8882-bf7bbbdc2a4e}, ! Handle
  Component Data 1,                       ! Name
  {0bb92d52-3858-4503-86e5-a58c87544472}, ! UUID
  {c88f5327-f14c-43eb-8773-762f191e60e0}, ! Version UUID
  1363981252,                             ! Creation Timestamp
  1363981252,                             ! Version Timestamp
  {7c8e5cb2-9e6f-4c75-9ac2-6b3374b3cd5e}, ! Name of Object 1
  {617332b0-b8e3-4342-afca-dd976f1a2276}, ! Name of Object 2
  {adf88a0c-0be4-48cd-864a-d6640f7c73b2}; ! Name of Object 3

