
OS:Version,
  {7f2a9efb-4149-4bc5-adc2-ffcbc1a32f94}, ! Handle
  0.9.3;                                  ! Version Identifier

OS:Material,
  {29edddb9-bd84-44d8-9585-c91f8b35811b}, ! Handle
  Metal Roofing,                          ! Name
  MediumSmooth,                           ! Roughness
  0.001524,                               ! Thickness {m}
  45.006,                                 ! Conductivity {W/m-K}
  7680,                                   ! Density {kg/m3}
  418.4,                                  ! Specific Heat {J/kg-K}
  0.9,                                    ! Thermal Absorptance
  0.7,                                    ! Solar Absorptance
  0.3;                                    ! Visible Absorptance

OS:Construction,
  {28789517-df5a-4c16-84f6-b28116a686db}, ! Handle
  90.1-1999 Res B14 Roof Metal Building,  ! Name
  ,                                       ! Surface Rendering Name
  {29edddb9-bd84-44d8-9585-c91f8b35811b}, ! Layer 1
  {a21e048b-817d-4783-b670-fe3c9711fca2}; ! Layer 2

OS:Material,
  {a21e048b-817d-4783-b670-fe3c9711fca2}, ! Handle
  Roof Insulation [1],                    ! Name
  MediumRough,                            ! Roughness
  0.123533,                               ! Thickness {m}
  0.049,                                  ! Conductivity {W/m-K}
  265,                                    ! Density {kg/m3}
  836.8,                                  ! Specific Heat {J/kg-K}
  0.9,                                    ! Thermal Absorptance
  0.7,                                    ! Solar Absorptance
  0.7;                                    ! Visible Absorptance

OS:ComponentCost:LineItem,
  {765fd214-afab-4e5f-9245-996b693f6dfb}, ! Handle
  90.1-1999 Res B14 Roof Metal Building,  ! Name
  ,                                       ! Type
  Construction,                           ! Line Item Type
  90.1-1999 Res B14 Roof Metal Building,  ! Item Name
  ,                                       ! Object End Use Key
  ,                                       ! Quantity {dimensionless}
  38.206,                                 ! Material Cost {$}
  CostPerArea;                            ! Material Cost Units

