
OS:Version,
  {117489be-e28f-469b-9496-4d9b5a54ada4}, ! Handle
  0.9.3;                                  ! Version Identifier

OS:WindowMaterial:Glazing,
  {45b92aa9-0c19-425e-a786-3bdf5b74eec2}, ! Handle
  Theoretical Glass [608],                ! Name
  SpectralAverage,                        ! Optical Data Type
  ,                                       ! Window Glass Spectral Data Set Name
  0.003,                                  ! Thickness {m}
  0.393495,                               ! Solar Transmittance at Normal Incidence
  0.556505,                               ! Front Side Solar Reflectance at Normal Incidence
  0.556505,                               ! Back Side Solar Reflectance at Normal Incidence
  0.549983,                               ! Visible Transmittance at Normal Incidence
  0.400017,                               ! Front Side Visible Reflectance at Normal Incidence
  0.400017,                               ! Back Side Visible Reflectance at Normal Incidence
  0,                                      ! Infrared Transmittance at Normal Incidence
  0.9,                                    ! Front Side Infrared Hemispherical Emissivity
  0.9,                                    ! Back Side Infrared Hemispherical Emissivity
  0.0198691;                              ! Conductivity {W/m-K}

OS:ComponentCost:LineItem,
  {a6b9e332-2ca9-4898-adab-4793529fb3c1}, ! Handle
  90.1 Windows Window Fixed 2170 Mtl-ClrSue-Std-ClrSue, ! Name
  ,                                       ! Type
  Construction,                           ! Line Item Type
  90.1 Windows Window Fixed 2170 Mtl-ClrSue-Std-ClrSue, ! Item Name
  ,                                       ! Object End Use Key
  ,                                       ! Quantity {dimensionless}
  0,                                      ! Material Cost {$}
  CostPerArea;                            ! Material Cost Units

OS:Construction,
  {72ecd278-f227-401e-a37e-d1301e006e24}, ! Handle
  90.1 Windows Window Fixed 2170 Mtl-ClrSue-Std-ClrSue, ! Name
  ,                                       ! Surface Rendering Name
  {45b92aa9-0c19-425e-a786-3bdf5b74eec2}; ! Layer 1

