
OS:Version,
  {1eef063f-8554-4f2d-8d29-d9aad4d24b78}, ! Handle
  0.9.3;                                  ! Version Identifier

OS:Construction,
  {e127a46e-79ad-4194-9e06-af77dbac23aa}, ! Handle
  90.1 Windows Window Fixed 2170 Mtl-ClrSue-Std-ClrSue, ! Name
  ,                                       ! Surface Rendering Name
  {f84cabf0-ed0f-4ac1-9e81-2a0c2f7b900c}; ! Layer 1

OS:WindowMaterial:Glazing,
  {f84cabf0-ed0f-4ac1-9e81-2a0c2f7b900c}, ! Handle
  Theoretical Glass [608],                ! Name
  SpectralAverage,                        ! Optical Data Type
  ,                                       ! Window Glass Spectral Data Set Name
  0.003,                                  ! Thickness {m}
  0.393495,                               ! Solar Transmittance at Normal Incidence
  0.556505,                               ! Front Side Solar Reflectance at Normal Incidence
  0.556505,                               ! Back Side Solar Reflectance at Normal Incidence
  0.549983,                               ! Visible Transmittance at Normal Incidence
  0.400017,                               ! Front Side Visible Reflectance at Normal Incidence
  0.400017,                               ! Back Side Visible Reflectance at Normal Incidence
  0,                                      ! Infrared Transmittance at Normal Incidence
  0.9,                                    ! Front Side Infrared Hemispherical Emissivity
  0.9,                                    ! Back Side Infrared Hemispherical Emissivity
  0.0198691;                              ! Conductivity {W/m-K}

OS:ComponentCost:LineItem,
  {b859d2d4-bae9-4d8e-9228-cf309b10793a}, ! Handle
  90.1 Windows Window Fixed 2170 Mtl-ClrSue-Std-ClrSue, ! Name
  ,                                       ! Type
  Construction,                           ! Line Item Type
  90.1 Windows Window Fixed 2170 Mtl-ClrSue-Std-ClrSue, ! Item Name
  ,                                       ! Object End Use Key
  ,                                       ! Quantity {dimensionless}
  0,                                      ! Material Cost {$}
  CostPerArea;                            ! Material Cost Units

OS:ComponentData,
  {b7147d81-28cb-4233-a50a-b91021e86410}, ! Handle
  Component Data 1,                       ! Name
  {722cb94e-cbab-41e7-b80c-5a68dc780f55}, ! UUID
  {67979b60-6b46-4b83-970e-af7959f6d039}, ! Version UUID
  1363981032,                             ! Creation Timestamp
  1363981032,                             ! Version Timestamp
  {e127a46e-79ad-4194-9e06-af77dbac23aa}, ! Name of Object 1
  {f84cabf0-ed0f-4ac1-9e81-2a0c2f7b900c}, ! Name of Object 2
  {b859d2d4-bae9-4d8e-9228-cf309b10793a}; ! Name of Object 3

