
OS:Version,
  {84a85aff-6e10-4425-bcde-61fdb6a321e4}, ! Handle
  0.9.3;                                  ! Version Identifier

OS:Construction,
  {d7d2a622-43f0-499b-8041-2d5c5ea8d658}, ! Handle
  90.1-2007 Nonres 4B Ext Slab Unheated - 8in Slab with Carpet, ! Name
  ,                                       ! Surface Rendering Name
  {5ec8998b-020c-4501-a5a3-d45079811b35}, ! Layer 1
  {111d8c12-0a6e-4fcb-a36c-32584b7cf430}; ! Layer 2

OS:Material,
  {5ec8998b-020c-4501-a5a3-d45079811b35}, ! Handle
  MAT-CC05 8 HW CONCRETE,                 ! Name
  Rough,                                  ! Roughness
  0.20321,                                ! Thickness {m}
  1.311,                                  ! Conductivity {W/m-K}
  2240,                                   ! Density {kg/m3}
  836.8,                                  ! Specific Heat {J/kg-K}
  0.9,                                    ! Thermal Absorptance
  0.7,                                    ! Solar Absorptance
  0.7;                                    ! Visible Absorptance

OS:Material:NoMass,
  {111d8c12-0a6e-4fcb-a36c-32584b7cf430}, ! Handle
  CP02 CARPET PAD,                        ! Name
  VeryRough,                              ! Roughness
  0.21648,                                ! Thermal Resistance {m2-K/W}
  0.9,                                    ! Thermal Absorptance
  0.7,                                    ! Solar Absorptance
  0.8;                                    ! Visible Absorptance

OS:ComponentCost:LineItem,
  {fc631db6-add4-424d-bfe9-313316f4755b}, ! Handle
  90.1-2007 Nonres 4B Ext Slab Unheated - 8in Slab with Carpet, ! Name
  ,                                       ! Type
  Construction,                           ! Line Item Type
  90.1-2007 Nonres 4B Ext Slab Unheated - 8in Slab with Carpet, ! Item Name
  ,                                       ! Object End Use Key
  ,                                       ! Quantity {dimensionless}
  45.52,                                  ! Material Cost {$}
  CostPerArea;                            ! Material Cost Units

OS:ComponentData,
  {e38cc83a-9365-4b17-a106-f087bdd5f07f}, ! Handle
  Component Data 1,                       ! Name
  {7878240e-d2b1-44cb-8bee-267f495edb7f}, ! UUID
  {4a63d0c1-515f-4665-a15d-c43b8dbe75cd}, ! Version UUID
  1363981802,                             ! Creation Timestamp
  1363981802,                             ! Version Timestamp
  {d7d2a622-43f0-499b-8041-2d5c5ea8d658}, ! Name of Object 1
  {5ec8998b-020c-4501-a5a3-d45079811b35}, ! Name of Object 2
  {111d8c12-0a6e-4fcb-a36c-32584b7cf430}, ! Name of Object 3
  {fc631db6-add4-424d-bfe9-313316f4755b}; ! Name of Object 4

