
OS:Version,
  {465ad487-c110-4633-b964-1c6e5ee7bc55}, ! Handle
  0.9.3;                                  ! Version Identifier

OS:Construction,
  {28bf35bd-5e08-4d76-a0da-98609d6b8bce}, ! Handle
  90.1-2007 Nonres 4B Roof Attic and Other, ! Name
  ,                                       ! Surface Rendering Name
  {6a94a7b7-870e-430d-ab6c-85182629ee61}, ! Layer 1
  {2ab7f66d-0036-482c-8bab-75df18402c6b}, ! Layer 2
  {9c2ad9ed-95c2-429f-b7ec-db56e71acf43}, ! Layer 3
  {1e689f9d-2225-475a-84b1-41d8ff9a47c2}; ! Layer 4

OS:Material,
  {6a94a7b7-870e-430d-ab6c-85182629ee61}, ! Handle
  Wood Shingles,                          ! Name
  VeryRough,                              ! Roughness
  0.0178,                                 ! Thickness {m}
  0.115,                                  ! Conductivity {W/m-K}
  513,                                    ! Density {kg/m3}
  1255,                                   ! Specific Heat {J/kg-K}
  0.9,                                    ! Thermal Absorptance
  0.78,                                   ! Solar Absorptance
  0.78;                                   ! Visible Absorptance

OS:Material,
  {2ab7f66d-0036-482c-8bab-75df18402c6b}, ! Handle
  1IN Wood Decking,                       ! Name
  MediumSmooth,                           ! Roughness
  0.0254,                                 ! Thickness {m}
  0.1211,                                 ! Conductivity {W/m-K}
  593,                                    ! Density {kg/m3}
  2510,                                   ! Specific Heat {J/kg-K}
  0.9,                                    ! Thermal Absorptance
  0.78,                                   ! Solar Absorptance
  0.78;                                   ! Visible Absorptance

OS:Material,
  {9c2ad9ed-95c2-429f-b7ec-db56e71acf43}, ! Handle
  Roof Insulation [5],                    ! Name
  MediumRough,                            ! Roughness
  0.286906,                               ! Thickness {m}
  0.049,                                  ! Conductivity {W/m-K}
  265,                                    ! Density {kg/m3}
  836.8,                                  ! Specific Heat {J/kg-K}
  0.9,                                    ! Thermal Absorptance
  0.7,                                    ! Solar Absorptance
  0.7;                                    ! Visible Absorptance

OS:Material,
  {1e689f9d-2225-475a-84b1-41d8ff9a47c2}, ! Handle
  1/2IN Gypsum,                           ! Name
  Smooth,                                 ! Roughness
  0.01271,                                ! Thickness {m}
  0.16,                                   ! Conductivity {W/m-K}
  784.9,                                  ! Density {kg/m3}
  830,                                    ! Specific Heat {J/kg-K}
  0.9,                                    ! Thermal Absorptance
  0.92,                                   ! Solar Absorptance
  0.92;                                   ! Visible Absorptance

OS:ComponentCost:LineItem,
  {7fc02b29-a812-4fbc-a8c7-3c529a4e0b67}, ! Handle
  90.1-2007 Nonres 4B Roof Attic and Other, ! Name
  ,                                       ! Type
  Construction,                           ! Line Item Type
  90.1-2007 Nonres 4B Roof Attic and Other, ! Item Name
  ,                                       ! Object End Use Key
  ,                                       ! Quantity {dimensionless}
  34.757,                                 ! Material Cost {$}
  CostPerArea;                            ! Material Cost Units

OS:ComponentData,
  {9d325fc3-838b-4db4-82fa-89a0e524449e}, ! Handle
  Component Data 1,                       ! Name
  {2324789c-99f5-494f-b1e5-43de6bb1f552}, ! UUID
  {eb06b65d-be74-4070-a8e5-c0f3eddb4f56}, ! Version UUID
  1363981800,                             ! Creation Timestamp
  1363981800,                             ! Version Timestamp
  {28bf35bd-5e08-4d76-a0da-98609d6b8bce}, ! Name of Object 1
  {6a94a7b7-870e-430d-ab6c-85182629ee61}, ! Name of Object 2
  {2ab7f66d-0036-482c-8bab-75df18402c6b}, ! Name of Object 3
  {9c2ad9ed-95c2-429f-b7ec-db56e71acf43}, ! Name of Object 4
  {1e689f9d-2225-475a-84b1-41d8ff9a47c2}, ! Name of Object 5
  {7fc02b29-a812-4fbc-a8c7-3c529a4e0b67}; ! Name of Object 6

