
OS:Version,
  {fa83989f-2d13-4a81-b041-4b78f0883832}, ! Handle
  0.9.3;                                  ! Version Identifier

OS:Construction,
  {2787252d-f25b-480c-8615-27ea842ad996}, ! Handle
  90.1-1999 Nonres B21 Ext Wall Metal Building, ! Name
  ,                                       ! Surface Rendering Name
  {b170fe6a-998a-4835-ac76-071fdcf773af}, ! Layer 1
  {c91f07f8-c62e-4b1f-b564-a51a8224ea60}, ! Layer 2
  {2b81360e-f5f5-4062-a9b3-06ed9084ce9c}; ! Layer 3

OS:Material,
  {b170fe6a-998a-4835-ac76-071fdcf773af}, ! Handle
  Metal Siding,                           ! Name
  Smooth,                                 ! Roughness
  0.0015,                                 ! Thickness {m}
  44.96,                                  ! Conductivity {W/m-K}
  7688.86,                                ! Density {kg/m3}
  410,                                    ! Specific Heat {J/kg-K}
  0.9,                                    ! Thermal Absorptance
  0.2,                                    ! Solar Absorptance
  0.2;                                    ! Visible Absorptance

OS:Material,
  {c91f07f8-c62e-4b1f-b564-a51a8224ea60}, ! Handle
  Wall Insulation [9],                    ! Name
  MediumRough,                            ! Roughness
  0.128642,                               ! Thickness {m}
  0.045,                                  ! Conductivity {W/m-K}
  265,                                    ! Density {kg/m3}
  836.8,                                  ! Specific Heat {J/kg-K}
  0.9,                                    ! Thermal Absorptance
  0.7,                                    ! Solar Absorptance
  0.7;                                    ! Visible Absorptance

OS:Material,
  {2b81360e-f5f5-4062-a9b3-06ed9084ce9c}, ! Handle
  1/2IN Gypsum,                           ! Name
  Smooth,                                 ! Roughness
  0.01271,                                ! Thickness {m}
  0.16,                                   ! Conductivity {W/m-K}
  784.9,                                  ! Density {kg/m3}
  830,                                    ! Specific Heat {J/kg-K}
  0.9,                                    ! Thermal Absorptance
  0.92,                                   ! Solar Absorptance
  0.92;                                   ! Visible Absorptance

OS:ComponentCost:LineItem,
  {efa0b594-a24b-423d-a13d-54ce148151f3}, ! Handle
  90.1-1999 Nonres B21 Ext Wall Metal Building, ! Name
  ,                                       ! Type
  Construction,                           ! Line Item Type
  90.1-1999 Nonres B21 Ext Wall Metal Building, ! Item Name
  ,                                       ! Object End Use Key
  ,                                       ! Quantity {dimensionless}
  107.698,                                ! Material Cost {$}
  CostPerArea;                            ! Material Cost Units

OS:ComponentData,
  {c4152735-8be7-435d-9f03-6c0ce45eefb1}, ! Handle
  Component Data 1,                       ! Name
  {c5d06397-1c1b-4dd7-9b12-cd23ce9fdce7}, ! UUID
  {50d1c7b8-987a-4f4c-9d73-ffe909ee4a6a}, ! Version UUID
  1363981133,                             ! Creation Timestamp
  1363981133,                             ! Version Timestamp
  {2787252d-f25b-480c-8615-27ea842ad996}, ! Name of Object 1
  {b170fe6a-998a-4835-ac76-071fdcf773af}, ! Name of Object 2
  {c91f07f8-c62e-4b1f-b564-a51a8224ea60}, ! Name of Object 3
  {2b81360e-f5f5-4062-a9b3-06ed9084ce9c}, ! Name of Object 4
  {efa0b594-a24b-423d-a13d-54ce148151f3}; ! Name of Object 5

