
OS:Version,
  {aefd4142-f40c-49ef-ac23-47e75a466c69}, ! Handle
  0.9.3;                                  ! Version Identifier

OS:Construction,
  {aa18fc90-c378-437a-8432-97348e079dd4}, ! Handle
  90.1-1999 Nonres B21 Ext Wall Metal Building, ! Name
  ,                                       ! Surface Rendering Name
  {9c438dc7-6c43-43ed-902d-964f5990c930}, ! Layer 1
  {d66008ec-45d7-4041-979a-89302855d598}, ! Layer 2
  {0f548017-7f1b-407f-a83a-2f2ba2a92edd}; ! Layer 3

OS:Material,
  {9c438dc7-6c43-43ed-902d-964f5990c930}, ! Handle
  Metal Siding,                           ! Name
  Smooth,                                 ! Roughness
  0.0015,                                 ! Thickness {m}
  44.96,                                  ! Conductivity {W/m-K}
  7688.86,                                ! Density {kg/m3}
  410,                                    ! Specific Heat {J/kg-K}
  0.9,                                    ! Thermal Absorptance
  0.2,                                    ! Solar Absorptance
  0.2;                                    ! Visible Absorptance

OS:Material,
  {d66008ec-45d7-4041-979a-89302855d598}, ! Handle
  Wall Insulation [9],                    ! Name
  MediumRough,                            ! Roughness
  0.128642,                               ! Thickness {m}
  0.045,                                  ! Conductivity {W/m-K}
  265,                                    ! Density {kg/m3}
  836.8,                                  ! Specific Heat {J/kg-K}
  0.9,                                    ! Thermal Absorptance
  0.7,                                    ! Solar Absorptance
  0.7;                                    ! Visible Absorptance

OS:Material,
  {0f548017-7f1b-407f-a83a-2f2ba2a92edd}, ! Handle
  1/2IN Gypsum,                           ! Name
  Smooth,                                 ! Roughness
  0.01271,                                ! Thickness {m}
  0.16,                                   ! Conductivity {W/m-K}
  784.9,                                  ! Density {kg/m3}
  830,                                    ! Specific Heat {J/kg-K}
  0.9,                                    ! Thermal Absorptance
  0.92,                                   ! Solar Absorptance
  0.92;                                   ! Visible Absorptance

OS:ComponentCost:LineItem,
  {37f50fe6-fd4f-461e-8563-4446dfe4bdbb}, ! Handle
  90.1-1999 Nonres B21 Ext Wall Metal Building, ! Name
  ,                                       ! Type
  Construction,                           ! Line Item Type
  90.1-1999 Nonres B21 Ext Wall Metal Building, ! Item Name
  ,                                       ! Object End Use Key
  ,                                       ! Quantity {dimensionless}
  107.698,                                ! Material Cost {$}
  CostPerArea;                            ! Material Cost Units

