
OS:Version,
  {aa6393cc-01ac-40cb-a0f3-cf08f36b2498}, ! Handle
  0.9.3;                                  ! Version Identifier

OS:WindowMaterial:Glazing,
  {7cda27e0-5fc4-4259-87ab-127ba2abbf5a}, ! Handle
  Theoretical Glass [38],                 ! Name
  SpectralAverage,                        ! Optical Data Type
  ,                                       ! Window Glass Spectral Data Set Name
  0.003,                                  ! Thickness {m}
  0.670707,                               ! Solar Transmittance at Normal Incidence
  0.279293,                               ! Front Side Solar Reflectance at Normal Incidence
  0.279293,                               ! Back Side Solar Reflectance at Normal Incidence
  0.754945,                               ! Visible Transmittance at Normal Incidence
  0.195055,                               ! Front Side Visible Reflectance at Normal Incidence
  0.195055,                               ! Back Side Visible Reflectance at Normal Incidence
  0,                                      ! Infrared Transmittance at Normal Incidence
  0.9,                                    ! Front Side Infrared Hemispherical Emissivity
  0.9,                                    ! Back Side Infrared Hemispherical Emissivity
  0.03026;                                ! Conductivity {W/m-K}

OS:Construction,
  {ed84d23f-7a5c-42b6-9d53-3cfdec2d5914}, ! Handle
  90.1-1999 Nonres B22 Skylight without Curb, ! Name
  ,                                       ! Surface Rendering Name
  {7cda27e0-5fc4-4259-87ab-127ba2abbf5a}; ! Layer 1

OS:ComponentCost:LineItem,
  {d56d20d2-5c23-4927-8ee7-57c49fd91b0b}, ! Handle
  90.1-1999 Nonres B22 Skylight without Curb, ! Name
  ,                                       ! Type
  Construction,                           ! Line Item Type
  90.1-1999 Nonres B22 Skylight without Curb, ! Item Name
  ,                                       ! Object End Use Key
  ,                                       ! Quantity {dimensionless}
  502.229,                                ! Material Cost {$}
  CostPerArea;                            ! Material Cost Units

