
OS:Version,
  {beb65cc6-f848-438e-908f-cbba143a31c4}, ! Handle
  0.9.3;                                  ! Version Identifier

OS:Construction,
  {d01b02fc-af4c-41f6-a94f-734e997807a7}, ! Handle
  90.1 Windows Window Fixed 2144 Mtl-ClrMpr-Std-ClrSue, ! Name
  ,                                       ! Surface Rendering Name
  {169848d7-8625-4b12-9d38-bd7baa5b4ec7}; ! Layer 1

OS:WindowMaterial:Glazing,
  {169848d7-8625-4b12-9d38-bd7baa5b4ec7}, ! Handle
  Theoretical Glass [408],                ! Name
  SpectralAverage,                        ! Optical Data Type
  ,                                       ! Window Glass Spectral Data Set Name
  0.003,                                  ! Thickness {m}
  0.342898,                               ! Solar Transmittance at Normal Incidence
  0.607102,                               ! Front Side Solar Reflectance at Normal Incidence
  0.607102,                               ! Back Side Solar Reflectance at Normal Incidence
  0.370537,                               ! Visible Transmittance at Normal Incidence
  0.579463,                               ! Front Side Visible Reflectance at Normal Incidence
  0.579463,                               ! Back Side Visible Reflectance at Normal Incidence
  0,                                      ! Infrared Transmittance at Normal Incidence
  0.9,                                    ! Front Side Infrared Hemispherical Emissivity
  0.9,                                    ! Back Side Infrared Hemispherical Emissivity
  0.0198691;                              ! Conductivity {W/m-K}

OS:ComponentCost:LineItem,
  {ebf4ddf0-e423-4e08-862c-691a3da7e0b8}, ! Handle
  90.1 Windows Window Fixed 2144 Mtl-ClrMpr-Std-ClrSue, ! Name
  ,                                       ! Type
  Construction,                           ! Line Item Type
  90.1 Windows Window Fixed 2144 Mtl-ClrMpr-Std-ClrSue, ! Item Name
  ,                                       ! Object End Use Key
  ,                                       ! Quantity {dimensionless}
  0,                                      ! Material Cost {$}
  CostPerArea;                            ! Material Cost Units

OS:ComponentData,
  {654ddf15-64bd-48ce-85e7-fce0e6c068f8}, ! Handle
  Component Data 1,                       ! Name
  {f603d86f-1308-4878-a23b-93cca082e1d0}, ! UUID
  {6220b033-c085-4f78-b2bc-948de29dd7c2}, ! Version UUID
  1363981015,                             ! Creation Timestamp
  1363981015,                             ! Version Timestamp
  {d01b02fc-af4c-41f6-a94f-734e997807a7}, ! Name of Object 1
  {169848d7-8625-4b12-9d38-bd7baa5b4ec7}, ! Name of Object 2
  {ebf4ddf0-e423-4e08-862c-691a3da7e0b8}; ! Name of Object 3

