
OS:Version,
  {cf31f605-4b35-4a9d-a092-50d50c6fef11}, ! Handle
  0.9.3;                                  ! Version Identifier

OS:Material,
  {f6a65e3f-23f2-4450-a003-79dd0d92ecf7}, ! Handle
  Wall Insulation [9],                    ! Name
  MediumRough,                            ! Roughness
  0.128642,                               ! Thickness {m}
  0.045,                                  ! Conductivity {W/m-K}
  265,                                    ! Density {kg/m3}
  836.8,                                  ! Specific Heat {J/kg-K}
  0.9,                                    ! Thermal Absorptance
  0.7,                                    ! Solar Absorptance
  0.7;                                    ! Visible Absorptance

OS:Material,
  {51a6754e-5566-48ff-82b8-7a8cd27a9131}, ! Handle
  Metal Siding,                           ! Name
  Smooth,                                 ! Roughness
  0.0015,                                 ! Thickness {m}
  44.96,                                  ! Conductivity {W/m-K}
  7688.86,                                ! Density {kg/m3}
  410,                                    ! Specific Heat {J/kg-K}
  0.9,                                    ! Thermal Absorptance
  0.2,                                    ! Solar Absorptance
  0.2;                                    ! Visible Absorptance

OS:Material,
  {1af7f1ab-e9e9-4a0a-bee8-a85d43daba68}, ! Handle
  1/2IN Gypsum,                           ! Name
  Smooth,                                 ! Roughness
  0.01271,                                ! Thickness {m}
  0.16,                                   ! Conductivity {W/m-K}
  784.9,                                  ! Density {kg/m3}
  830,                                    ! Specific Heat {J/kg-K}
  0.9,                                    ! Thermal Absorptance
  0.92,                                   ! Solar Absorptance
  0.92;                                   ! Visible Absorptance

OS:Construction,
  {fe7169e0-5a0b-496c-aaab-8cd3d4109e8e}, ! Handle
  90.1-2001 Nonres B22 Ext Wall Metal Building, ! Name
  ,                                       ! Surface Rendering Name
  {51a6754e-5566-48ff-82b8-7a8cd27a9131}, ! Layer 1
  {f6a65e3f-23f2-4450-a003-79dd0d92ecf7}, ! Layer 2
  {1af7f1ab-e9e9-4a0a-bee8-a85d43daba68}; ! Layer 3

OS:ComponentCost:LineItem,
  {1e8c97ae-29c1-4ea9-bc35-acb0ee35c585}, ! Handle
  90.1-2001 Nonres B22 Ext Wall Metal Building, ! Name
  ,                                       ! Type
  Construction,                           ! Line Item Type
  90.1-2001 Nonres B22 Ext Wall Metal Building, ! Item Name
  ,                                       ! Object End Use Key
  ,                                       ! Quantity {dimensionless}
  107.698,                                ! Material Cost {$}
  CostPerArea;                            ! Material Cost Units

