
OS:Version,
  {ea3c553f-b60d-48ff-acdd-07a12eecf26f}, ! Handle
  0.9.3;                                  ! Version Identifier

OS:Construction,
  {8a13bea4-5c12-4986-a5d8-be2fa36c4ee6}, ! Handle
  90.1-2001 Nonres B22 Ext Wall Metal Building, ! Name
  ,                                       ! Surface Rendering Name
  {ae6b11c6-7348-4b87-9be6-f682fbb813b2}, ! Layer 1
  {8e56535d-ba9c-4f9e-9365-2bb4cde11b90}, ! Layer 2
  {9c493801-2061-4600-8853-36471c61d5b4}; ! Layer 3

OS:Material,
  {ae6b11c6-7348-4b87-9be6-f682fbb813b2}, ! Handle
  Metal Siding,                           ! Name
  Smooth,                                 ! Roughness
  0.0015,                                 ! Thickness {m}
  44.96,                                  ! Conductivity {W/m-K}
  7688.86,                                ! Density {kg/m3}
  410,                                    ! Specific Heat {J/kg-K}
  0.9,                                    ! Thermal Absorptance
  0.2,                                    ! Solar Absorptance
  0.2;                                    ! Visible Absorptance

OS:Material,
  {8e56535d-ba9c-4f9e-9365-2bb4cde11b90}, ! Handle
  Wall Insulation [9],                    ! Name
  MediumRough,                            ! Roughness
  0.128642,                               ! Thickness {m}
  0.045,                                  ! Conductivity {W/m-K}
  265,                                    ! Density {kg/m3}
  836.8,                                  ! Specific Heat {J/kg-K}
  0.9,                                    ! Thermal Absorptance
  0.7,                                    ! Solar Absorptance
  0.7;                                    ! Visible Absorptance

OS:Material,
  {9c493801-2061-4600-8853-36471c61d5b4}, ! Handle
  1/2IN Gypsum,                           ! Name
  Smooth,                                 ! Roughness
  0.01271,                                ! Thickness {m}
  0.16,                                   ! Conductivity {W/m-K}
  784.9,                                  ! Density {kg/m3}
  830,                                    ! Specific Heat {J/kg-K}
  0.9,                                    ! Thermal Absorptance
  0.92,                                   ! Solar Absorptance
  0.92;                                   ! Visible Absorptance

OS:ComponentCost:LineItem,
  {2a186107-a604-4710-bfb9-d9a461fb1448}, ! Handle
  90.1-2001 Nonres B22 Ext Wall Metal Building, ! Name
  ,                                       ! Type
  Construction,                           ! Line Item Type
  90.1-2001 Nonres B22 Ext Wall Metal Building, ! Item Name
  ,                                       ! Object End Use Key
  ,                                       ! Quantity {dimensionless}
  107.698,                                ! Material Cost {$}
  CostPerArea;                            ! Material Cost Units

OS:ComponentData,
  {2c9ea7a7-293d-4b1a-972b-6983d3f0eb52}, ! Handle
  Component Data 1,                       ! Name
  {3d1bc92f-92dc-440b-80a8-df66635eff25}, ! UUID
  {eae8c0b9-2d5b-4c8f-bdf4-bd2ef28cb122}, ! Version UUID
  1363981412,                             ! Creation Timestamp
  1363981412,                             ! Version Timestamp
  {8a13bea4-5c12-4986-a5d8-be2fa36c4ee6}, ! Name of Object 1
  {ae6b11c6-7348-4b87-9be6-f682fbb813b2}, ! Name of Object 2
  {8e56535d-ba9c-4f9e-9365-2bb4cde11b90}, ! Name of Object 3
  {9c493801-2061-4600-8853-36471c61d5b4}, ! Name of Object 4
  {2a186107-a604-4710-bfb9-d9a461fb1448}; ! Name of Object 5

