
OS:Version,
  {d9ff3fd2-bc58-4237-b372-e15e58540567}, ! Handle
  0.9.3;                                  ! Version Identifier

OS:Construction,
  {1b28ad98-19a5-4295-aff3-5767f8d48a14}, ! Handle
  90.1-2001 Res B19 Ext Wall Metal Building, ! Name
  ,                                       ! Surface Rendering Name
  {23d9a8a9-2840-4d23-90b3-759fabe7589a}, ! Layer 1
  {4bc2a17d-4e3e-46df-b30a-8bd9a28c71c6}, ! Layer 2
  {39dc83f9-03f6-4193-a3f7-be8846c7d6a8}; ! Layer 3

OS:Material,
  {23d9a8a9-2840-4d23-90b3-759fabe7589a}, ! Handle
  Metal Siding,                           ! Name
  Smooth,                                 ! Roughness
  0.0015,                                 ! Thickness {m}
  44.96,                                  ! Conductivity {W/m-K}
  7688.86,                                ! Density {kg/m3}
  410,                                    ! Specific Heat {J/kg-K}
  0.9,                                    ! Thermal Absorptance
  0.2,                                    ! Solar Absorptance
  0.2;                                    ! Visible Absorptance

OS:Material,
  {4bc2a17d-4e3e-46df-b30a-8bd9a28c71c6}, ! Handle
  Wall Insulation [9],                    ! Name
  MediumRough,                            ! Roughness
  0.128642,                               ! Thickness {m}
  0.045,                                  ! Conductivity {W/m-K}
  265,                                    ! Density {kg/m3}
  836.8,                                  ! Specific Heat {J/kg-K}
  0.9,                                    ! Thermal Absorptance
  0.7,                                    ! Solar Absorptance
  0.7;                                    ! Visible Absorptance

OS:Material,
  {39dc83f9-03f6-4193-a3f7-be8846c7d6a8}, ! Handle
  1/2IN Gypsum,                           ! Name
  Smooth,                                 ! Roughness
  0.01271,                                ! Thickness {m}
  0.16,                                   ! Conductivity {W/m-K}
  784.9,                                  ! Density {kg/m3}
  830,                                    ! Specific Heat {J/kg-K}
  0.9,                                    ! Thermal Absorptance
  0.92,                                   ! Solar Absorptance
  0.92;                                   ! Visible Absorptance

OS:ComponentCost:LineItem,
  {1a7ab53f-ff07-4415-9009-caf3e8db3fe2}, ! Handle
  90.1-2001 Res B19 Ext Wall Metal Building, ! Name
  ,                                       ! Type
  Construction,                           ! Line Item Type
  90.1-2001 Res B19 Ext Wall Metal Building, ! Item Name
  ,                                       ! Object End Use Key
  ,                                       ! Quantity {dimensionless}
  107.698,                                ! Material Cost {$}
  CostPerArea;                            ! Material Cost Units

OS:ComponentData,
  {8ff75daf-ab58-42c0-a227-b511cb1503cd}, ! Handle
  Component Data 1,                       ! Name
  {cb3a256b-cc14-44a6-aa1d-eff391047130}, ! UUID
  {eff84797-5666-45b7-b6b1-cd0e3c8b8e84}, ! Version UUID
  1363981565,                             ! Creation Timestamp
  1363981565,                             ! Version Timestamp
  {1b28ad98-19a5-4295-aff3-5767f8d48a14}, ! Name of Object 1
  {23d9a8a9-2840-4d23-90b3-759fabe7589a}, ! Name of Object 2
  {4bc2a17d-4e3e-46df-b30a-8bd9a28c71c6}, ! Name of Object 3
  {39dc83f9-03f6-4193-a3f7-be8846c7d6a8}, ! Name of Object 4
  {1a7ab53f-ff07-4415-9009-caf3e8db3fe2}; ! Name of Object 5

