
OS:Version,
  {3b17b0b2-f052-4386-9aa4-dce5f7dd6ddf}, ! Handle
  0.9.3;                                  ! Version Identifier

OS:Construction,
  {d480d9af-c03f-4b36-88ac-f9da473f1060}, ! Handle
  Title 24-2008 Nonres 14 Ext Slab Unheated - 8in Slab without Carpet, ! Name
  ,                                       ! Surface Rendering Name
  {2b6c718e-e20a-4f98-a226-2e63b01e4363}; ! Layer 1

OS:Material,
  {2b6c718e-e20a-4f98-a226-2e63b01e4363}, ! Handle
  MAT-CC05 8 HW CONCRETE,                 ! Name
  Rough,                                  ! Roughness
  0.20321,                                ! Thickness {m}
  1.311,                                  ! Conductivity {W/m-K}
  2240,                                   ! Density {kg/m3}
  836.8,                                  ! Specific Heat {J/kg-K}
  0.9,                                    ! Thermal Absorptance
  0.7,                                    ! Solar Absorptance
  0.7;                                    ! Visible Absorptance

OS:ComponentCost:LineItem,
  {8b1d514f-c0df-416a-8076-0c267a3c4091}, ! Handle
  Title 24-2008 Nonres 14 Ext Slab Unheated - 8in Slab without Carpet, ! Name
  ,                                       ! Type
  Construction,                           ! Line Item Type
  Title 24-2008 Nonres 14 Ext Slab Unheated - 8in Slab without Carpet, ! Item Name
  ,                                       ! Object End Use Key
  ,                                       ! Quantity {dimensionless}
  45.52,                                  ! Material Cost {$}
  CostPerArea;                            ! Material Cost Units

OS:ComponentData,
  {4ad11530-4d38-466a-bf95-d69cfd649439}, ! Handle
  Component Data 1,                       ! Name
  {f23820e9-aa35-406d-ad99-2a6b0f1e31ec}, ! UUID
  {ccb77b4f-e50d-45f5-b086-e46f0a8acdff}, ! Version UUID
  1363982101,                             ! Creation Timestamp
  1363982101,                             ! Version Timestamp
  {d480d9af-c03f-4b36-88ac-f9da473f1060}, ! Name of Object 1
  {2b6c718e-e20a-4f98-a226-2e63b01e4363}, ! Name of Object 2
  {8b1d514f-c0df-416a-8076-0c267a3c4091}; ! Name of Object 3

