
OS:Version,
  {2dddcb65-394d-4ee9-aefd-1874f08fc695}, ! Handle
  0.9.3;                                  ! Version Identifier

OS:Construction,
  {0479b481-a07f-4193-a1b0-39413f59ce24}, ! Handle
  Title 24-2008 Nonres 7 Roof IEAD,       ! Name
  ,                                       ! Surface Rendering Name
  {02359510-e825-4504-864d-0f10d3ff0f09}, ! Layer 1
  {6e7d2193-8c5c-4ec0-a2d6-901a45a4837d}, ! Layer 2
  {64a680b4-2c6b-46ad-acb2-2e08182af41b}; ! Layer 3

OS:Material,
  {02359510-e825-4504-864d-0f10d3ff0f09}, ! Handle
  Roof Membrane [2],                      ! Name
  VeryRough,                              ! Roughness
  0.0095,                                 ! Thickness {m}
  0.16,                                   ! Conductivity {W/m-K}
  1121.29,                                ! Density {kg/m3}
  1460,                                   ! Specific Heat {J/kg-K}
  0.9,                                    ! Thermal Absorptance
  0.7,                                    ! Solar Absorptance
  0.85;                                   ! Visible Absorptance

OS:Material,
  {6e7d2193-8c5c-4ec0-a2d6-901a45a4837d}, ! Handle
  Roof Insulation [110],                  ! Name
  MediumRough,                            ! Roughness
  0.116806,                               ! Thickness {m}
  0.049,                                  ! Conductivity {W/m-K}
  265,                                    ! Density {kg/m3}
  836.8,                                  ! Specific Heat {J/kg-K}
  0.9,                                    ! Thermal Absorptance
  0.7,                                    ! Solar Absorptance
  0.7;                                    ! Visible Absorptance

OS:Material,
  {64a680b4-2c6b-46ad-acb2-2e08182af41b}, ! Handle
  Metal Decking,                          ! Name
  MediumSmooth,                           ! Roughness
  0.001524,                               ! Thickness {m}
  45.006,                                 ! Conductivity {W/m-K}
  7680,                                   ! Density {kg/m3}
  418.4,                                  ! Specific Heat {J/kg-K}
  0.9,                                    ! Thermal Absorptance
  0.7,                                    ! Solar Absorptance
  0.3;                                    ! Visible Absorptance

OS:ComponentCost:LineItem,
  {4c3e1976-614c-4ef5-9523-3bf8d7aaad93}, ! Handle
  Title 24-2008 Nonres 7 Roof IEAD,       ! Name
  ,                                       ! Type
  Construction,                           ! Line Item Type
  Title 24-2008 Nonres 7 Roof IEAD,       ! Item Name
  ,                                       ! Object End Use Key
  ,                                       ! Quantity {dimensionless}
  48.645,                                 ! Material Cost {$}
  CostPerArea;                            ! Material Cost Units

OS:ComponentData,
  {60a5726b-7204-4005-8882-cbe629bd283d}, ! Handle
  Component Data 1,                       ! Name
  {9cfaf22a-0f2c-42ab-b7a6-2458e2c61111}, ! UUID
  {ee4d38c2-259f-458d-99bc-a4aac208164f}, ! Version UUID
  1363982037,                             ! Creation Timestamp
  1363982037,                             ! Version Timestamp
  {0479b481-a07f-4193-a1b0-39413f59ce24}, ! Name of Object 1
  {02359510-e825-4504-864d-0f10d3ff0f09}, ! Name of Object 2
  {6e7d2193-8c5c-4ec0-a2d6-901a45a4837d}, ! Name of Object 3
  {64a680b4-2c6b-46ad-acb2-2e08182af41b}, ! Name of Object 4
  {4c3e1976-614c-4ef5-9523-3bf8d7aaad93}; ! Name of Object 5

