
OS:Version,
  {74a338ff-370b-4249-9f13-e9853ceebce8}, ! Handle
  0.9.3;                                  ! Version Identifier

OS:ComponentCost:LineItem,
  {24280283-e35b-4cac-ad60-5a439834fc9e}, ! Handle
  Title 24-2008 Nonres 7 Roof IEAD,       ! Name
  ,                                       ! Type
  Construction,                           ! Line Item Type
  Title 24-2008 Nonres 7 Roof IEAD,       ! Item Name
  ,                                       ! Object End Use Key
  ,                                       ! Quantity {dimensionless}
  48.645,                                 ! Material Cost {$}
  CostPerArea;                            ! Material Cost Units

OS:Material,
  {fb989d55-3807-458d-ae78-cda5703dbb25}, ! Handle
  Roof Insulation [110],                  ! Name
  MediumRough,                            ! Roughness
  0.116806,                               ! Thickness {m}
  0.049,                                  ! Conductivity {W/m-K}
  265,                                    ! Density {kg/m3}
  836.8,                                  ! Specific Heat {J/kg-K}
  0.9,                                    ! Thermal Absorptance
  0.7,                                    ! Solar Absorptance
  0.7;                                    ! Visible Absorptance

OS:Construction,
  {0b2e0097-9e13-4397-821c-db265763c8ad}, ! Handle
  Title 24-2008 Nonres 7 Roof IEAD,       ! Name
  ,                                       ! Surface Rendering Name
  {bc18432c-03f5-4823-b7a5-bf7ecf133b65}, ! Layer 1
  {fb989d55-3807-458d-ae78-cda5703dbb25}, ! Layer 2
  {5394cf12-1bde-4e8a-9fc9-c76159b91849}; ! Layer 3

OS:Material,
  {bc18432c-03f5-4823-b7a5-bf7ecf133b65}, ! Handle
  Roof Membrane [2],                      ! Name
  VeryRough,                              ! Roughness
  0.0095,                                 ! Thickness {m}
  0.16,                                   ! Conductivity {W/m-K}
  1121.29,                                ! Density {kg/m3}
  1460,                                   ! Specific Heat {J/kg-K}
  0.9,                                    ! Thermal Absorptance
  0.7,                                    ! Solar Absorptance
  0.85;                                   ! Visible Absorptance

OS:Material,
  {5394cf12-1bde-4e8a-9fc9-c76159b91849}, ! Handle
  Metal Decking,                          ! Name
  MediumSmooth,                           ! Roughness
  0.001524,                               ! Thickness {m}
  45.006,                                 ! Conductivity {W/m-K}
  7680,                                   ! Density {kg/m3}
  418.4,                                  ! Specific Heat {J/kg-K}
  0.9,                                    ! Thermal Absorptance
  0.7,                                    ! Solar Absorptance
  0.3;                                    ! Visible Absorptance

