
OS:Version,
  {44e3c600-7fff-476b-a304-2e6c16ea5217}, ! Handle
  0.9.3;                                  ! Version Identifier

OS:Construction,
  {0e7d852c-3dba-4fd7-883a-e89fa64d1dd5}, ! Handle
  90.1-2007 Nonres 2A Roof IEAD,          ! Name
  ,                                       ! Surface Rendering Name
  {1ea56217-c3ae-4e06-8f87-8dac05d804f2}, ! Layer 1
  {cab01015-ec7c-4520-84b5-555746cdb240}, ! Layer 2
  {fc56bcb1-3367-451c-b7c5-358e163a1017}; ! Layer 3

OS:Material,
  {1ea56217-c3ae-4e06-8f87-8dac05d804f2}, ! Handle
  Roof Membrane,                          ! Name
  VeryRough,                              ! Roughness
  0.0095,                                 ! Thickness {m}
  0.16,                                   ! Conductivity {W/m-K}
  1121.29,                                ! Density {kg/m3}
  1460,                                   ! Specific Heat {J/kg-K}
  0.9,                                    ! Thermal Absorptance
  0.7,                                    ! Solar Absorptance
  0.7;                                    ! Visible Absorptance

OS:Material,
  {cab01015-ec7c-4520-84b5-555746cdb240}, ! Handle
  Roof Insulation [14],                   ! Name
  MediumRough,                            ! Roughness
  0.167335,                               ! Thickness {m}
  0.049,                                  ! Conductivity {W/m-K}
  265,                                    ! Density {kg/m3}
  836.8,                                  ! Specific Heat {J/kg-K}
  0.9,                                    ! Thermal Absorptance
  0.7,                                    ! Solar Absorptance
  0.7;                                    ! Visible Absorptance

OS:Material,
  {fc56bcb1-3367-451c-b7c5-358e163a1017}, ! Handle
  Metal Decking,                          ! Name
  MediumSmooth,                           ! Roughness
  0.001524,                               ! Thickness {m}
  45.006,                                 ! Conductivity {W/m-K}
  7680,                                   ! Density {kg/m3}
  418.4,                                  ! Specific Heat {J/kg-K}
  0.9,                                    ! Thermal Absorptance
  0.7,                                    ! Solar Absorptance
  0.3;                                    ! Visible Absorptance

OS:ComponentCost:LineItem,
  {0f4ab171-3eb3-4941-803d-1877ff3101f3}, ! Handle
  90.1-2007 Nonres 2A Roof IEAD,          ! Name
  ,                                       ! Type
  Construction,                           ! Line Item Type
  90.1-2007 Nonres 2A Roof IEAD,          ! Item Name
  ,                                       ! Object End Use Key
  ,                                       ! Quantity {dimensionless}
  52.87,                                  ! Material Cost {$}
  CostPerArea;                            ! Material Cost Units

OS:ComponentData,
  {db8e9572-2edb-4f96-8d21-b565ee749e99}, ! Handle
  Component Data 1,                       ! Name
  {420fca18-c1f7-475a-9c65-303ee47fa8b9}, ! UUID
  {07f338a2-a2d8-41b1-b248-aab69e0ba002}, ! Version UUID
  1363981781,                             ! Creation Timestamp
  1363981781,                             ! Version Timestamp
  {0e7d852c-3dba-4fd7-883a-e89fa64d1dd5}, ! Name of Object 1
  {1ea56217-c3ae-4e06-8f87-8dac05d804f2}, ! Name of Object 2
  {cab01015-ec7c-4520-84b5-555746cdb240}, ! Name of Object 3
  {fc56bcb1-3367-451c-b7c5-358e163a1017}, ! Name of Object 4
  {0f4ab171-3eb3-4941-803d-1877ff3101f3}; ! Name of Object 5

