
OS:Version,
  {348292bf-17af-4056-9dc1-f79b18a1d106}, ! Handle
  0.9.3;                                  ! Version Identifier

OS:Construction,
  {d5eee691-cd2c-48c1-8722-3f72db82c062}, ! Handle
  90.1-2001 Nonres B16 Ext Wall Steel-Framed, ! Name
  ,                                       ! Surface Rendering Name
  {3d4ac648-653e-4c00-aeb1-9ec4fab9ed03}, ! Layer 1
  {11b5d9f9-08e2-4d4b-914d-5fd2f9e6e38a}, ! Layer 2
  {b2be9f84-9e35-48fc-b049-0c8b90900264}; ! Layer 3

OS:Material:NoMass,
  {3d4ac648-653e-4c00-aeb1-9ec4fab9ed03}, ! Handle
  MAT-SHEATH,                             ! Name
  Rough,                                  ! Roughness
  0.36256,                                ! Thermal Resistance {m2-K/W}
  0.9,                                    ! Thermal Absorptance
  0.7,                                    ! Solar Absorptance
  0.7;                                    ! Visible Absorptance

OS:Material,
  {11b5d9f9-08e2-4d4b-914d-5fd2f9e6e38a}, ! Handle
  Wall Insulation [6],                    ! Name
  MediumRough,                            ! Roughness
  0.0678449,                              ! Thickness {m}
  0.045,                                  ! Conductivity {W/m-K}
  265,                                    ! Density {kg/m3}
  836.8,                                  ! Specific Heat {J/kg-K}
  0.9,                                    ! Thermal Absorptance
  0.7,                                    ! Solar Absorptance
  0.7;                                    ! Visible Absorptance

OS:Material,
  {b2be9f84-9e35-48fc-b049-0c8b90900264}, ! Handle
  1/2IN Gypsum,                           ! Name
  Smooth,                                 ! Roughness
  0.01271,                                ! Thickness {m}
  0.16,                                   ! Conductivity {W/m-K}
  784.9,                                  ! Density {kg/m3}
  830,                                    ! Specific Heat {J/kg-K}
  0.9,                                    ! Thermal Absorptance
  0.92,                                   ! Solar Absorptance
  0.92;                                   ! Visible Absorptance

OS:ComponentCost:LineItem,
  {5f2b23db-3632-4d7e-b5fd-ec0ba4d1c511}, ! Handle
  90.1-2001 Nonres B16 Ext Wall Steel-Framed, ! Name
  ,                                       ! Type
  Construction,                           ! Line Item Type
  90.1-2001 Nonres B16 Ext Wall Steel-Framed, ! Item Name
  ,                                       ! Object End Use Key
  ,                                       ! Quantity {dimensionless}
  91.749,                                 ! Material Cost {$}
  CostPerArea;                            ! Material Cost Units

OS:ComponentData,
  {912f6baf-808e-4c23-b44e-8a8041437020}, ! Handle
  Component Data 1,                       ! Name
  {bff62f2f-b919-4909-8efe-4c20f8531f38}, ! UUID
  {b5768ff5-0e68-4a01-a296-5dee2b5e8c4c}, ! Version UUID
  1363981375,                             ! Creation Timestamp
  1363981375,                             ! Version Timestamp
  {d5eee691-cd2c-48c1-8722-3f72db82c062}, ! Name of Object 1
  {3d4ac648-653e-4c00-aeb1-9ec4fab9ed03}, ! Name of Object 2
  {11b5d9f9-08e2-4d4b-914d-5fd2f9e6e38a}, ! Name of Object 3
  {b2be9f84-9e35-48fc-b049-0c8b90900264}, ! Name of Object 4
  {5f2b23db-3632-4d7e-b5fd-ec0ba4d1c511}; ! Name of Object 5

