
OS:Version,
  {fd931b78-39da-45bf-b064-3f4b835dddd8}, ! Handle
  0.9.3;                                  ! Version Identifier

OS:Material,
  {70d46f9a-e73e-4075-b9f9-74524b6fb1e3}, ! Handle
  1/2IN Gypsum Bottom,                    ! Name
  Smooth,                                 ! Roughness
  0.01271,                                ! Thickness {m}
  0.16,                                   ! Conductivity {W/m-K}
  784.9,                                  ! Density {kg/m3}
  830,                                    ! Specific Heat {J/kg-K}
  0.9,                                    ! Thermal Absorptance
  0.92,                                   ! Solar Absorptance
  0.92;                                   ! Visible Absorptance

OS:Material,
  {8b08f636-f34a-4f5e-b476-932873096e8a}, ! Handle
  1/2IN Gypsum Top,                       ! Name
  Smooth,                                 ! Roughness
  0.01271,                                ! Thickness {m}
  0.16,                                   ! Conductivity {W/m-K}
  784.9,                                  ! Density {kg/m3}
  830,                                    ! Specific Heat {J/kg-K}
  0.9,                                    ! Thermal Absorptance
  0.92,                                   ! Solar Absorptance
  0.92;                                   ! Visible Absorptance

OS:ComponentCost:LineItem,
  {14162b8b-0f55-40cc-8880-2ddc7eb96c63}, ! Handle
  189.1-2009 Res 2A Attic Floor,          ! Name
  ,                                       ! Type
  Construction,                           ! Line Item Type
  189.1-2009 Res 2A Attic Floor,          ! Item Name
  ,                                       ! Object End Use Key
  ,                                       ! Quantity {dimensionless}
  37.058,                                 ! Material Cost {$}
  CostPerArea;                            ! Material Cost Units

OS:Material,
  {a3184e8c-f8d2-4d55-8f95-dd76cb055a04}, ! Handle
  AtticFloor Insulation [4],              ! Name
  MediumRough,                            ! Roughness
  0.392234,                               ! Thickness {m}
  0.049,                                  ! Conductivity {W/m-K}
  265,                                    ! Density {kg/m3}
  836.8,                                  ! Specific Heat {J/kg-K}
  0.9,                                    ! Thermal Absorptance
  0.7,                                    ! Solar Absorptance
  0.7;                                    ! Visible Absorptance

OS:Construction,
  {a943e94b-ecad-4e0f-b2ec-b5bb712fbcc2}, ! Handle
  189.1-2009 Res 2A Attic Floor,          ! Name
  ,                                       ! Surface Rendering Name
  {8b08f636-f34a-4f5e-b476-932873096e8a}, ! Layer 1
  {a3184e8c-f8d2-4d55-8f95-dd76cb055a04}, ! Layer 2
  {70d46f9a-e73e-4075-b9f9-74524b6fb1e3}; ! Layer 3

