
OS:Version,
  {478a4211-dfb1-449b-be77-df7d4a848d60}, ! Handle
  0.9.3;                                  ! Version Identifier

OS:Construction,
  {cb0493a9-db59-4fab-8856-c18437833aeb}, ! Handle
  90.1-2001 Nonres B23 Int Wall,          ! Name
  ,                                       ! Surface Rendering Name
  {217a6015-f5b0-4f85-b3d7-35193cfa5e91}, ! Layer 1
  {217a6015-f5b0-4f85-b3d7-35193cfa5e91}; ! Layer 2

OS:Material,
  {217a6015-f5b0-4f85-b3d7-35193cfa5e91}, ! Handle
  GP01 1/2 GYPSUM,                        ! Name
  Smooth,                                 ! Roughness
  0.01271,                                ! Thickness {m}
  0.16,                                   ! Conductivity {W/m-K}
  800,                                    ! Density {kg/m3}
  1090,                                   ! Specific Heat {J/kg-K}
  0.9,                                    ! Thermal Absorptance
  0.7,                                    ! Solar Absorptance
  0.5;                                    ! Visible Absorptance

OS:ComponentCost:LineItem,
  {cfd67e08-fb27-4741-b05c-b65d634e4801}, ! Handle
  90.1-2001 Nonres B23 Int Wall,          ! Name
  ,                                       ! Type
  Construction,                           ! Line Item Type
  90.1-2001 Nonres B23 Int Wall,          ! Item Name
  ,                                       ! Object End Use Key
  ,                                       ! Quantity {dimensionless}
  0,                                      ! Material Cost {$}
  CostPerArea;                            ! Material Cost Units

OS:Material,
  {a62f31c4-9564-46bb-8e8d-45b9619ad404}, ! Handle
  GP01 1/2 GYPSUM 1,                      ! Name
  Smooth,                                 ! Roughness
  0.01271,                                ! Thickness {m}
  0.16,                                   ! Conductivity {W/m-K}
  800,                                    ! Density {kg/m3}
  1090,                                   ! Specific Heat {J/kg-K}
  0.9,                                    ! Thermal Absorptance
  0.7,                                    ! Solar Absorptance
  0.5;                                    ! Visible Absorptance

