
OS:Version,
  {d0c98251-60ca-4b43-ad18-7db32f7ded4a}, ! Handle
  0.9.3;                                  ! Version Identifier

OS:Construction,
  {e205ff38-6205-4d64-ac8c-0e06c22c8b6a}, ! Handle
  189.1-2009 Nonres 6B Int Wall,          ! Name
  ,                                       ! Surface Rendering Name
  {83c64ebd-afa0-4109-a9f7-853cbe1baf77}, ! Layer 1
  {83c64ebd-afa0-4109-a9f7-853cbe1baf77}; ! Layer 2

OS:Material,
  {83c64ebd-afa0-4109-a9f7-853cbe1baf77}, ! Handle
  GP01 1/2 GYPSUM,                        ! Name
  Smooth,                                 ! Roughness
  0.01271,                                ! Thickness {m}
  0.16,                                   ! Conductivity {W/m-K}
  800,                                    ! Density {kg/m3}
  1090,                                   ! Specific Heat {J/kg-K}
  0.9,                                    ! Thermal Absorptance
  0.7,                                    ! Solar Absorptance
  0.5;                                    ! Visible Absorptance

OS:ComponentCost:LineItem,
  {8d4101c6-8273-45d7-86b2-2e37e8eb9a65}, ! Handle
  189.1-2009 Nonres 6B Int Wall,          ! Name
  ,                                       ! Type
  Construction,                           ! Line Item Type
  189.1-2009 Nonres 6B Int Wall,          ! Item Name
  ,                                       ! Object End Use Key
  ,                                       ! Quantity {dimensionless}
  0,                                      ! Material Cost {$}
  CostPerArea;                            ! Material Cost Units

OS:ComponentData,
  {19f5fa8b-2a6d-4b71-a93e-d794ff19a0e6}, ! Handle
  Component Data 1,                       ! Name
  {200bf809-9007-497f-a85e-ea11f4e57e62}, ! UUID
  {4d4cc469-6861-4a6e-8fb2-01f9d34feaac}, ! Version UUID
  1363980946,                             ! Creation Timestamp
  1363980946,                             ! Version Timestamp
  {e205ff38-6205-4d64-ac8c-0e06c22c8b6a}, ! Name of Object 1
  {83c64ebd-afa0-4109-a9f7-853cbe1baf77}, ! Name of Object 2
  {8d4101c6-8273-45d7-86b2-2e37e8eb9a65}; ! Name of Object 3

