
OS:Version,
  {247dc470-9996-4a1a-967c-4eff48e42801}, ! Handle
  0.9.3;                                  ! Version Identifier

OS:ComponentCost:LineItem,
  {112e52dd-38ad-4987-b97e-cd6dc6263b7f}, ! Handle
  189.1-2009 Nonres 3A Roof IEAD,         ! Name
  ,                                       ! Type
  Construction,                           ! Line Item Type
  189.1-2009 Nonres 3A Roof IEAD,         ! Item Name
  ,                                       ! Object End Use Key
  ,                                       ! Quantity {dimensionless}
  56.652,                                 ! Material Cost {$}
  CostPerArea;                            ! Material Cost Units

OS:Material,
  {8e1f1829-80b5-4ffb-8201-dceda854bb6e}, ! Handle
  Metal Decking,                          ! Name
  MediumSmooth,                           ! Roughness
  0.001524,                               ! Thickness {m}
  45.006,                                 ! Conductivity {W/m-K}
  7680,                                   ! Density {kg/m3}
  418.4,                                  ! Specific Heat {J/kg-K}
  0.9,                                    ! Thermal Absorptance
  0.7,                                    ! Solar Absorptance
  0.3;                                    ! Visible Absorptance

OS:Material,
  {c11e844e-967e-4fea-840c-620038eae2fc}, ! Handle
  Roof Membrane,                          ! Name
  VeryRough,                              ! Roughness
  0.0095,                                 ! Thickness {m}
  0.16,                                   ! Conductivity {W/m-K}
  1121.29,                                ! Density {kg/m3}
  1460,                                   ! Specific Heat {J/kg-K}
  0.9,                                    ! Thermal Absorptance
  0.7,                                    ! Solar Absorptance
  0.7;                                    ! Visible Absorptance

OS:Material,
  {0b1fc96f-0f6d-47da-b1c5-5e94467fbd11}, ! Handle
  Roof Insulation [21],                   ! Name
  MediumRough,                            ! Roughness
  0.210538,                               ! Thickness {m}
  0.049,                                  ! Conductivity {W/m-K}
  265,                                    ! Density {kg/m3}
  836.8,                                  ! Specific Heat {J/kg-K}
  0.9,                                    ! Thermal Absorptance
  0.7,                                    ! Solar Absorptance
  0.7;                                    ! Visible Absorptance

OS:Construction,
  {b85b1353-f4fb-42d7-81ec-96e999acac3a}, ! Handle
  189.1-2009 Nonres 3A Roof IEAD,         ! Name
  ,                                       ! Surface Rendering Name
  {c11e844e-967e-4fea-840c-620038eae2fc}, ! Layer 1
  {0b1fc96f-0f6d-47da-b1c5-5e94467fbd11}, ! Layer 2
  {8e1f1829-80b5-4ffb-8201-dceda854bb6e}; ! Layer 3

