
OS:Version,
  {5117323a-0ce1-436f-bbc1-a6f37ae2e272}, ! Handle
  0.9.3;                                  ! Version Identifier

OS:Construction,
  {6b844603-5def-458f-bbda-1ac10f03c2c8}, ! Handle
  90.1-2004 Res 2A Window Fixed,          ! Name
  ,                                       ! Surface Rendering Name
  {214680a5-79c0-4eee-bea7-5db7f642e46d}; ! Layer 1

OS:WindowMaterial:Glazing,
  {214680a5-79c0-4eee-bea7-5db7f642e46d}, ! Handle
  Theoretical Glass [158],                ! Name
  SpectralAverage,                        ! Optical Data Type
  ,                                       ! Window Glass Spectral Data Set Name
  0.003,                                  ! Thickness {m}
  0.415705,                               ! Solar Transmittance at Normal Incidence
  0.534295,                               ! Front Side Solar Reflectance at Normal Incidence
  0.534295,                               ! Back Side Solar Reflectance at Normal Incidence
  0.429741,                               ! Visible Transmittance at Normal Incidence
  0.520259,                               ! Front Side Visible Reflectance at Normal Incidence
  0.520259,                               ! Back Side Visible Reflectance at Normal Incidence
  0,                                      ! Infrared Transmittance at Normal Incidence
  0.999,                                  ! Front Side Infrared Hemispherical Emissivity
  0.999,                                  ! Back Side Infrared Hemispherical Emissivity
  3.36874;                                ! Conductivity {W/m-K}

OS:ComponentCost:LineItem,
  {57b56467-1c0c-42c3-bbf7-40d63c06825e}, ! Handle
  90.1-2004 Res 2A Window Fixed,          ! Name
  ,                                       ! Type
  Construction,                           ! Line Item Type
  90.1-2004 Res 2A Window Fixed,          ! Item Name
  ,                                       ! Object End Use Key
  ,                                       ! Quantity {dimensionless}
  462.094,                                ! Material Cost {$}
  CostPerArea;                            ! Material Cost Units

