
OS:Version,
  {efa35223-8e87-4387-9de0-5107c191b964}, ! Handle
  0.9.3;                                  ! Version Identifier

OS:ComponentCost:LineItem,
  {28733e3f-9033-4c11-8c9c-ea62e0f36768}, ! Handle
  189.1-2009 Nonres 7A Skylight without Curb, ! Name
  ,                                       ! Type
  Construction,                           ! Line Item Type
  189.1-2009 Nonres 7A Skylight without Curb, ! Item Name
  ,                                       ! Object End Use Key
  ,                                       ! Quantity {dimensionless}
  600.037,                                ! Material Cost {$}
  CostPerArea;                            ! Material Cost Units

OS:Construction,
  {868b1e3d-5f0f-4f45-a6ca-76ee44c7a8c6}, ! Handle
  189.1-2009 Nonres 7A Skylight without Curb, ! Name
  ,                                       ! Surface Rendering Name
  {4e731145-4cbd-48de-a3fc-1eb389dea1d5}; ! Layer 1

OS:WindowMaterial:Glazing,
  {4e731145-4cbd-48de-a3fc-1eb389dea1d5}, ! Handle
  Theoretical Glass [222],                ! Name
  SpectralAverage,                        ! Optical Data Type
  ,                                       ! Window Glass Spectral Data Set Name
  0.003,                                  ! Thickness {m}
  0.43998,                                ! Solar Transmittance at Normal Incidence
  0.51002,                                ! Front Side Solar Reflectance at Normal Incidence
  0.51002,                                ! Back Side Solar Reflectance at Normal Incidence
  0.460166,                               ! Visible Transmittance at Normal Incidence
  0.489834,                               ! Front Side Visible Reflectance at Normal Incidence
  0.489834,                               ! Back Side Visible Reflectance at Normal Incidence
  0,                                      ! Infrared Transmittance at Normal Incidence
  0.9,                                    ! Front Side Infrared Hemispherical Emissivity
  0.9,                                    ! Back Side Infrared Hemispherical Emissivity
  0.0133196;                              ! Conductivity {W/m-K}

