
OS:Version,
  {8e49c7c6-4f7c-464f-b0d5-30686d17a904}, ! Handle
  0.9.3;                                  ! Version Identifier

OS:Construction,
  {72388c83-e238-4deb-a593-fedb877b0a57}, ! Handle
  90.1 Windows Window Fixed 1502 Vnl-Grn, ! Name
  ,                                       ! Surface Rendering Name
  {fc51586a-29d9-49f7-a862-e5c343734bc4}; ! Layer 1

OS:WindowMaterial:Glazing,
  {fc51586a-29d9-49f7-a862-e5c343734bc4}, ! Handle
  Theoretical Glass [296],                ! Name
  SpectralAverage,                        ! Optical Data Type
  ,                                       ! Window Glass Spectral Data Set Name
  0.003,                                  ! Thickness {m}
  0.517475,                               ! Solar Transmittance at Normal Incidence
  0.432525,                               ! Front Side Solar Reflectance at Normal Incidence
  0.432525,                               ! Back Side Solar Reflectance at Normal Incidence
  0.639644,                               ! Visible Transmittance at Normal Incidence
  0.310356,                               ! Front Side Visible Reflectance at Normal Incidence
  0.310356,                               ! Back Side Visible Reflectance at Normal Incidence
  0,                                      ! Infrared Transmittance at Normal Incidence
  0.9,                                    ! Front Side Infrared Hemispherical Emissivity
  0.9,                                    ! Back Side Infrared Hemispherical Emissivity
  0.147533;                               ! Conductivity {W/m-K}

OS:ComponentCost:LineItem,
  {e6d4deb1-63b6-4f4b-809b-03c29cfcc646}, ! Handle
  90.1 Windows Window Fixed 1502 Vnl-Grn, ! Name
  ,                                       ! Type
  Construction,                           ! Line Item Type
  90.1 Windows Window Fixed 1502 Vnl-Grn, ! Item Name
  ,                                       ! Object End Use Key
  ,                                       ! Quantity {dimensionless}
  0,                                      ! Material Cost {$}
  CostPerArea;                            ! Material Cost Units

