
OS:Version,
  {a4227d01-a93e-4da2-8f7f-15ac24fbe958}, ! Handle
  0.9.3;                                  ! Version Identifier

OS:Construction,
  {d3631d07-b671-4f54-ba6d-2a7bef0a1fe8}, ! Handle
  Title 24-2008 Nonres 11 Ext Wall Wood-Framed and Other, ! Name
  ,                                       ! Surface Rendering Name
  {6aaba094-7596-476a-bcf9-5b53739db4ba}, ! Layer 1
  {d78d4f83-7f79-4058-9ad4-076576f14039}, ! Layer 2
  {067f9892-edd9-479c-b8c5-afdca34c2929}; ! Layer 3

OS:Material,
  {6aaba094-7596-476a-bcf9-5b53739db4ba}, ! Handle
  Wood Siding,                            ! Name
  MediumSmooth,                           ! Roughness
  0.01,                                   ! Thickness {m}
  0.11,                                   ! Conductivity {W/m-K}
  544.62,                                 ! Density {kg/m3}
  1210,                                   ! Specific Heat {J/kg-K}
  0.9,                                    ! Thermal Absorptance
  0.78,                                   ! Solar Absorptance
  0.78;                                   ! Visible Absorptance

OS:Material,
  {d78d4f83-7f79-4058-9ad4-076576f14039}, ! Handle
  Wall Insulation [159],                  ! Name
  MediumRough,                            ! Roughness
  0.0812,                                 ! Thickness {m}
  0.045,                                  ! Conductivity {W/m-K}
  265,                                    ! Density {kg/m3}
  836.8,                                  ! Specific Heat {J/kg-K}
  0.9,                                    ! Thermal Absorptance
  0.7,                                    ! Solar Absorptance
  0.7;                                    ! Visible Absorptance

OS:Material,
  {067f9892-edd9-479c-b8c5-afdca34c2929}, ! Handle
  1/2IN Gypsum,                           ! Name
  Smooth,                                 ! Roughness
  0.01271,                                ! Thickness {m}
  0.16,                                   ! Conductivity {W/m-K}
  784.9,                                  ! Density {kg/m3}
  830,                                    ! Specific Heat {J/kg-K}
  0.9,                                    ! Thermal Absorptance
  0.92,                                   ! Solar Absorptance
  0.92;                                   ! Visible Absorptance

OS:ComponentCost:LineItem,
  {b3d0d39e-250f-458c-9539-df1e4d511106}, ! Handle
  Title 24-2008 Nonres 11 Ext Wall Wood-Framed and Other, ! Name
  ,                                       ! Type
  Construction,                           ! Line Item Type
  Title 24-2008 Nonres 11 Ext Wall Wood-Framed and Other, ! Item Name
  ,                                       ! Object End Use Key
  ,                                       ! Quantity {dimensionless}
  140.526,                                ! Material Cost {$}
  CostPerArea;                            ! Material Cost Units

