
OS:Version,
  {c8df28df-d3df-4b4f-a412-401299519c71}, ! Handle
  0.9.3;                                  ! Version Identifier

OS:Construction,
  {ff22c36d-8cc8-4ddc-bb0b-599d2d037c01}, ! Handle
  Title 24-2008 Nonres 11 Ext Wall Wood-Framed and Other, ! Name
  ,                                       ! Surface Rendering Name
  {8509ed2d-28c5-40f0-9d9f-430aaaaf1639}, ! Layer 1
  {ab505352-3edb-40cf-a78b-143d1187fd8b}, ! Layer 2
  {42016484-b33a-41cd-8f02-23d94ee9e3c3}; ! Layer 3

OS:Material,
  {8509ed2d-28c5-40f0-9d9f-430aaaaf1639}, ! Handle
  Wood Siding,                            ! Name
  MediumSmooth,                           ! Roughness
  0.01,                                   ! Thickness {m}
  0.11,                                   ! Conductivity {W/m-K}
  544.62,                                 ! Density {kg/m3}
  1210,                                   ! Specific Heat {J/kg-K}
  0.9,                                    ! Thermal Absorptance
  0.78,                                   ! Solar Absorptance
  0.78;                                   ! Visible Absorptance

OS:Material,
  {ab505352-3edb-40cf-a78b-143d1187fd8b}, ! Handle
  Wall Insulation [159],                  ! Name
  MediumRough,                            ! Roughness
  0.0812,                                 ! Thickness {m}
  0.045,                                  ! Conductivity {W/m-K}
  265,                                    ! Density {kg/m3}
  836.8,                                  ! Specific Heat {J/kg-K}
  0.9,                                    ! Thermal Absorptance
  0.7,                                    ! Solar Absorptance
  0.7;                                    ! Visible Absorptance

OS:Material,
  {42016484-b33a-41cd-8f02-23d94ee9e3c3}, ! Handle
  1/2IN Gypsum,                           ! Name
  Smooth,                                 ! Roughness
  0.01271,                                ! Thickness {m}
  0.16,                                   ! Conductivity {W/m-K}
  784.9,                                  ! Density {kg/m3}
  830,                                    ! Specific Heat {J/kg-K}
  0.9,                                    ! Thermal Absorptance
  0.92,                                   ! Solar Absorptance
  0.92;                                   ! Visible Absorptance

OS:ComponentCost:LineItem,
  {403286cc-0950-44b0-9a89-bdbaa455a9a9}, ! Handle
  Title 24-2008 Nonres 11 Ext Wall Wood-Framed and Other, ! Name
  ,                                       ! Type
  Construction,                           ! Line Item Type
  Title 24-2008 Nonres 11 Ext Wall Wood-Framed and Other, ! Item Name
  ,                                       ! Object End Use Key
  ,                                       ! Quantity {dimensionless}
  140.526,                                ! Material Cost {$}
  CostPerArea;                            ! Material Cost Units

OS:ComponentData,
  {b11074d3-3e00-4855-93bd-99b19a7af3b0}, ! Handle
  Component Data 1,                       ! Name
  {4ba7d9fc-1da2-4165-96ba-ead8d6a2abbf}, ! UUID
  {e68c861a-f956-4784-9ced-078dbc105d66}, ! Version UUID
  1363982071,                             ! Creation Timestamp
  1363982071,                             ! Version Timestamp
  {ff22c36d-8cc8-4ddc-bb0b-599d2d037c01}, ! Name of Object 1
  {8509ed2d-28c5-40f0-9d9f-430aaaaf1639}, ! Name of Object 2
  {ab505352-3edb-40cf-a78b-143d1187fd8b}, ! Name of Object 3
  {42016484-b33a-41cd-8f02-23d94ee9e3c3}, ! Name of Object 4
  {403286cc-0950-44b0-9a89-bdbaa455a9a9}; ! Name of Object 5

