
OS:Version,
  {9969ce68-ca56-47b3-8d0f-751ba3e295ce}, ! Handle
  0.9.3;                                  ! Version Identifier

OS:Construction,
  {7bf44d8c-d1d3-4c06-bde8-bcefcd119a92}, ! Handle
  90.1-1999 Nonres B2 Ext Wall Metal Building, ! Name
  ,                                       ! Surface Rendering Name
  {7c627ae0-6e77-41ac-b65b-2d01523a4b6c}, ! Layer 1
  {513353ae-06a0-43f2-a6d9-e681c202f1b8}, ! Layer 2
  {1565bd15-9d43-4d4c-9c56-a8228431dd90}; ! Layer 3

OS:Material,
  {7c627ae0-6e77-41ac-b65b-2d01523a4b6c}, ! Handle
  Metal Siding,                           ! Name
  Smooth,                                 ! Roughness
  0.0015,                                 ! Thickness {m}
  44.96,                                  ! Conductivity {W/m-K}
  7688.86,                                ! Density {kg/m3}
  410,                                    ! Specific Heat {J/kg-K}
  0.9,                                    ! Thermal Absorptance
  0.2,                                    ! Solar Absorptance
  0.2;                                    ! Visible Absorptance

OS:Material,
  {513353ae-06a0-43f2-a6d9-e681c202f1b8}, ! Handle
  Wall Insulation,                        ! Name
  MediumRough,                            ! Roughness
  0.0598725,                              ! Thickness {m}
  0.045,                                  ! Conductivity {W/m-K}
  265,                                    ! Density {kg/m3}
  836.8,                                  ! Specific Heat {J/kg-K}
  0.9,                                    ! Thermal Absorptance
  0.7,                                    ! Solar Absorptance
  0.7;                                    ! Visible Absorptance

OS:Material,
  {1565bd15-9d43-4d4c-9c56-a8228431dd90}, ! Handle
  1/2IN Gypsum,                           ! Name
  Smooth,                                 ! Roughness
  0.01271,                                ! Thickness {m}
  0.16,                                   ! Conductivity {W/m-K}
  784.9,                                  ! Density {kg/m3}
  830,                                    ! Specific Heat {J/kg-K}
  0.9,                                    ! Thermal Absorptance
  0.92,                                   ! Solar Absorptance
  0.92;                                   ! Visible Absorptance

OS:ComponentCost:LineItem,
  {eb0582c8-b1db-4008-9146-cb4539c27364}, ! Handle
  90.1-1999 Nonres B2 Ext Wall Metal Building, ! Name
  ,                                       ! Type
  Construction,                           ! Line Item Type
  90.1-1999 Nonres B2 Ext Wall Metal Building, ! Item Name
  ,                                       ! Object End Use Key
  ,                                       ! Quantity {dimensionless}
  98.78,                                  ! Material Cost {$}
  CostPerArea;                            ! Material Cost Units

