
OS:Version,
  {b8c8db2a-a4fb-4a0a-8df7-654dca10706f}, ! Handle
  0.9.3;                                  ! Version Identifier

OS:Construction,
  {231f09dc-b181-459c-8690-cec630027298}, ! Handle
  90.1-1999 Nonres B2 Ext Wall Metal Building, ! Name
  ,                                       ! Surface Rendering Name
  {cc67474c-f372-41bf-8aa6-e7512c1f8d00}, ! Layer 1
  {0b7fba1c-dd53-4b9c-a30c-8aafca99c5b7}, ! Layer 2
  {65d5eeae-0db2-47d3-b7e5-3339253d2b71}; ! Layer 3

OS:Material,
  {cc67474c-f372-41bf-8aa6-e7512c1f8d00}, ! Handle
  Metal Siding,                           ! Name
  Smooth,                                 ! Roughness
  0.0015,                                 ! Thickness {m}
  44.96,                                  ! Conductivity {W/m-K}
  7688.86,                                ! Density {kg/m3}
  410,                                    ! Specific Heat {J/kg-K}
  0.9,                                    ! Thermal Absorptance
  0.2,                                    ! Solar Absorptance
  0.2;                                    ! Visible Absorptance

OS:Material,
  {0b7fba1c-dd53-4b9c-a30c-8aafca99c5b7}, ! Handle
  Wall Insulation,                        ! Name
  MediumRough,                            ! Roughness
  0.0598725,                              ! Thickness {m}
  0.045,                                  ! Conductivity {W/m-K}
  265,                                    ! Density {kg/m3}
  836.8,                                  ! Specific Heat {J/kg-K}
  0.9,                                    ! Thermal Absorptance
  0.7,                                    ! Solar Absorptance
  0.7;                                    ! Visible Absorptance

OS:Material,
  {65d5eeae-0db2-47d3-b7e5-3339253d2b71}, ! Handle
  1/2IN Gypsum,                           ! Name
  Smooth,                                 ! Roughness
  0.01271,                                ! Thickness {m}
  0.16,                                   ! Conductivity {W/m-K}
  784.9,                                  ! Density {kg/m3}
  830,                                    ! Specific Heat {J/kg-K}
  0.9,                                    ! Thermal Absorptance
  0.92,                                   ! Solar Absorptance
  0.92;                                   ! Visible Absorptance

OS:ComponentCost:LineItem,
  {9720a107-082b-4081-ad31-d2a811a38328}, ! Handle
  90.1-1999 Nonres B2 Ext Wall Metal Building, ! Name
  ,                                       ! Type
  Construction,                           ! Line Item Type
  90.1-1999 Nonres B2 Ext Wall Metal Building, ! Item Name
  ,                                       ! Object End Use Key
  ,                                       ! Quantity {dimensionless}
  98.78,                                  ! Material Cost {$}
  CostPerArea;                            ! Material Cost Units

OS:ComponentData,
  {bd8e2919-4076-49c5-a6af-6a8cbf943107}, ! Handle
  Component Data 1,                       ! Name
  {153d808c-b946-4e29-8746-0351aef6196f}, ! UUID
  {08b4e1c5-9b13-4bf6-a4db-c235767ae88a}, ! Version UUID
  1363981042,                             ! Creation Timestamp
  1363981042,                             ! Version Timestamp
  {231f09dc-b181-459c-8690-cec630027298}, ! Name of Object 1
  {cc67474c-f372-41bf-8aa6-e7512c1f8d00}, ! Name of Object 2
  {0b7fba1c-dd53-4b9c-a30c-8aafca99c5b7}, ! Name of Object 3
  {65d5eeae-0db2-47d3-b7e5-3339253d2b71}, ! Name of Object 4
  {9720a107-082b-4081-ad31-d2a811a38328}; ! Name of Object 5

