
OS:Version,
  {c659b469-cf9e-45d5-9c5f-d171503a21ff}, !- Handle
  1.0.6;                                  !- Version Identifier

OS:Construction,
  {d86938ee-d309-47fd-b8bf-68a23bb5f5b8}, !- Handle
  189.1-2011 NONRES 7 METAL FRAMING ALL OTHER, !- Name
  ,                                       !- Surface Rendering Name
  {fd6651f3-3e4d-42b1-90c9-ff15a4c95342}; !- Layer 1

OS:WindowMaterial:Glazing,
  {fd6651f3-3e4d-42b1-90c9-ff15a4c95342}, !- Handle
  189.1-2011 NONRES 7A METAL FRAMING ALL OTHER THEORETICAL GLAZING, !- Name
  SpectralAverage,                        !- Optical Data Type
  ,                                       !- Window Glass Spectral Data Set Name
  0.03746,                                !- Thickness {m}
  0.36619,                                !- Solar Transmittance at Normal Incidence
  0.435,                                  !- Front Side Solar Reflectance at Normal Incidence
  0.435,                                  !- Back Side Solar Reflectance at Normal Incidence
  0.36619,                                !- Visible Transmittance at Normal Incidence
  0.435,                                  !- Front Side Visible Reflectance at Normal Incidence
  0.435,                                  !- Back Side Visible Reflectance at Normal Incidence
  0,                                      !- Infrared Transmittance at Normal Incidence
  0.84,                                   !- Front Side Infrared Hemispherical Emissivity
  0.84,                                   !- Back Side Infrared Hemispherical Emissivity
  0.11374,                                !- Conductivity {W/m-K}
  1,                                      !- Dirt Correction Factor for Solar and Visible Transmittance
  No;                                     !- Solar Diffusing

OS:ComponentData,
  {2b78aead-2286-409b-b93a-759edad004cf}, !- Handle
  Component Data 1,                       !- Name
  {1cd33c45-7697-45b3-980a-32dfba8bbdd8}, !- UUID
  {7a292417-8576-45f8-9a40-6a1d22a6dd75}, !- Version UUID
  1380911254,                             !- Creation Timestamp
  1380911254,                             !- Version Timestamp
  {d86938ee-d309-47fd-b8bf-68a23bb5f5b8}, !- Name of Object 1
  {fd6651f3-3e4d-42b1-90c9-ff15a4c95342}; !- Name of Object 2

