
OS:Version,
  {f5af2b40-1cfc-4944-885b-418fbff5b28a}, !- Handle
  1.0.6;                                  !- Version Identifier

OS:WindowMaterial:Glazing,
  {db7e0bf0-f2d3-4cf9-b270-181909699c1a}, !- Handle
  189.1-2011 NONRES 7A METAL FRAMING ALL OTHER THEORETICAL GLAZING, !- Name
  SpectralAverage,                        !- Optical Data Type
  ,                                       !- Window Glass Spectral Data Set Name
  0.03746,                                !- Thickness {m}
  0.36619,                                !- Solar Transmittance at Normal Incidence
  0.435,                                  !- Front Side Solar Reflectance at Normal Incidence
  0.435,                                  !- Back Side Solar Reflectance at Normal Incidence
  0.36619,                                !- Visible Transmittance at Normal Incidence
  0.435,                                  !- Front Side Visible Reflectance at Normal Incidence
  0.435,                                  !- Back Side Visible Reflectance at Normal Incidence
  0,                                      !- Infrared Transmittance at Normal Incidence
  0.84,                                   !- Front Side Infrared Hemispherical Emissivity
  0.84,                                   !- Back Side Infrared Hemispherical Emissivity
  0.11374,                                !- Conductivity {W/m-K}
  1,                                      !- Dirt Correction Factor for Solar and Visible Transmittance
  No;                                     !- Solar Diffusing

OS:Construction,
  {b279c51a-95ad-4af5-ab8b-3a064dd52d25}, !- Handle
  189.1-2011 NONRES 7 METAL FRAMING ALL OTHER, !- Name
  ,                                       !- Surface Rendering Name
  {db7e0bf0-f2d3-4cf9-b270-181909699c1a}; !- Layer 1

