
OS:Version,
  {3d4da8cc-8468-459f-a7fc-d739990a0496}, ! Handle
  0.9.3;                                  ! Version Identifier

OS:Material,
  {60ff99e8-8d42-493b-8d88-f3f116fb4a95}, ! Handle
  Roof Membrane,                          ! Name
  VeryRough,                              ! Roughness
  0.0095,                                 ! Thickness {m}
  0.16,                                   ! Conductivity {W/m-K}
  1121.29,                                ! Density {kg/m3}
  1460,                                   ! Specific Heat {J/kg-K}
  0.9,                                    ! Thermal Absorptance
  0.7,                                    ! Solar Absorptance
  0.7;                                    ! Visible Absorptance

OS:ComponentCost:LineItem,
  {7a198dce-34c4-456f-b0a5-31ad4075f5fb}, ! Handle
  90.1-1999 Nonres B2 Roof IEAD,          ! Name
  ,                                       ! Type
  Construction,                           ! Line Item Type
  90.1-1999 Nonres B2 Roof IEAD,          ! Item Name
  ,                                       ! Object End Use Key
  ,                                       ! Quantity {dimensionless}
  49.208,                                 ! Material Cost {$}
  CostPerArea;                            ! Material Cost Units

OS:Material,
  {3283ade3-b80e-4c34-aeb3-30544824df54}, ! Handle
  Metal Decking,                          ! Name
  MediumSmooth,                           ! Roughness
  0.001524,                               ! Thickness {m}
  45.006,                                 ! Conductivity {W/m-K}
  7680,                                   ! Density {kg/m3}
  418.4,                                  ! Specific Heat {J/kg-K}
  0.9,                                    ! Thermal Absorptance
  0.7,                                    ! Solar Absorptance
  0.3;                                    ! Visible Absorptance

OS:Construction,
  {a83b3a97-463f-4ab9-af6b-8a6b43951deb}, ! Handle
  90.1-1999 Nonres B2 Roof IEAD,          ! Name
  ,                                       ! Surface Rendering Name
  {60ff99e8-8d42-493b-8d88-f3f116fb4a95}, ! Layer 1
  {33572fdb-7e58-4bd3-b9a2-4a20661774fa}, ! Layer 2
  {3283ade3-b80e-4c34-aeb3-30544824df54}; ! Layer 3

OS:Material,
  {33572fdb-7e58-4bd3-b9a2-4a20661774fa}, ! Handle
  Roof Insulation,                        ! Name
  MediumRough,                            ! Roughness
  0.124958,                               ! Thickness {m}
  0.049,                                  ! Conductivity {W/m-K}
  265,                                    ! Density {kg/m3}
  836.8,                                  ! Specific Heat {J/kg-K}
  0.9,                                    ! Thermal Absorptance
  0.7,                                    ! Solar Absorptance
  0.7;                                    ! Visible Absorptance

