
OS:Version,
  {cc39ab62-e8fa-459f-adf7-d493935bb462}, ! Handle
  0.9.3;                                  ! Version Identifier

OS:Construction,
  {7d1ce282-abf1-4328-9d1a-bc9818a2bdb3}, ! Handle
  90.1-1999 Nonres B2 Roof IEAD,          ! Name
  ,                                       ! Surface Rendering Name
  {e418cd43-f47c-47d9-889b-6b5d8cea3053}, ! Layer 1
  {1adfde0e-aa46-47f7-8272-af24b5ec0d62}, ! Layer 2
  {f9e2405c-5f6e-4ba4-aee4-09cd7d5304e8}; ! Layer 3

OS:Material,
  {e418cd43-f47c-47d9-889b-6b5d8cea3053}, ! Handle
  Roof Membrane,                          ! Name
  VeryRough,                              ! Roughness
  0.0095,                                 ! Thickness {m}
  0.16,                                   ! Conductivity {W/m-K}
  1121.29,                                ! Density {kg/m3}
  1460,                                   ! Specific Heat {J/kg-K}
  0.9,                                    ! Thermal Absorptance
  0.7,                                    ! Solar Absorptance
  0.7;                                    ! Visible Absorptance

OS:Material,
  {1adfde0e-aa46-47f7-8272-af24b5ec0d62}, ! Handle
  Roof Insulation,                        ! Name
  MediumRough,                            ! Roughness
  0.124958,                               ! Thickness {m}
  0.049,                                  ! Conductivity {W/m-K}
  265,                                    ! Density {kg/m3}
  836.8,                                  ! Specific Heat {J/kg-K}
  0.9,                                    ! Thermal Absorptance
  0.7,                                    ! Solar Absorptance
  0.7;                                    ! Visible Absorptance

OS:Material,
  {f9e2405c-5f6e-4ba4-aee4-09cd7d5304e8}, ! Handle
  Metal Decking,                          ! Name
  MediumSmooth,                           ! Roughness
  0.001524,                               ! Thickness {m}
  45.006,                                 ! Conductivity {W/m-K}
  7680,                                   ! Density {kg/m3}
  418.4,                                  ! Specific Heat {J/kg-K}
  0.9,                                    ! Thermal Absorptance
  0.7,                                    ! Solar Absorptance
  0.3;                                    ! Visible Absorptance

OS:ComponentCost:LineItem,
  {9468795f-b097-42ad-8ec0-730c8f773bef}, ! Handle
  90.1-1999 Nonres B2 Roof IEAD,          ! Name
  ,                                       ! Type
  Construction,                           ! Line Item Type
  90.1-1999 Nonres B2 Roof IEAD,          ! Item Name
  ,                                       ! Object End Use Key
  ,                                       ! Quantity {dimensionless}
  49.208,                                 ! Material Cost {$}
  CostPerArea;                            ! Material Cost Units

OS:ComponentData,
  {f6967e71-5231-478f-a71e-d81dd357acd0}, ! Handle
  Component Data 1,                       ! Name
  {54768656-5287-45cc-90a7-945a468bb66b}, ! UUID
  {4758ccb9-fca6-4eee-a6dc-bc5a0b9d55e7}, ! Version UUID
  1363981041,                             ! Creation Timestamp
  1363981041,                             ! Version Timestamp
  {7d1ce282-abf1-4328-9d1a-bc9818a2bdb3}, ! Name of Object 1
  {e418cd43-f47c-47d9-889b-6b5d8cea3053}, ! Name of Object 2
  {1adfde0e-aa46-47f7-8272-af24b5ec0d62}, ! Name of Object 3
  {f9e2405c-5f6e-4ba4-aee4-09cd7d5304e8}, ! Name of Object 4
  {9468795f-b097-42ad-8ec0-730c8f773bef}; ! Name of Object 5

