
OS:Version,
  {da78248f-08f8-42cc-b0f3-cc8e8120e12e}, ! Handle
  0.9.3;                                  ! Version Identifier

OS:Construction,
  {6d8e9676-a42e-4ba1-bc8c-5a32f76fb0c3}, ! Handle
  90.1-2001 Res B18 Ext Wall Steel-Framed, ! Name
  ,                                       ! Surface Rendering Name
  {56a62350-9037-4aa1-b2d3-2a69693e0f4c}, ! Layer 1
  {ac01b2c2-c2d8-41ae-a832-d4d14eff0507}, ! Layer 2
  {b67093a3-4502-4aac-ba1c-3bf19a431d41}; ! Layer 3

OS:Material:NoMass,
  {56a62350-9037-4aa1-b2d3-2a69693e0f4c}, ! Handle
  MAT-SHEATH,                             ! Name
  Rough,                                  ! Roughness
  0.36256,                                ! Thermal Resistance {m2-K/W}
  0.9,                                    ! Thermal Absorptance
  0.7,                                    ! Solar Absorptance
  0.7;                                    ! Visible Absorptance

OS:Material,
  {ac01b2c2-c2d8-41ae-a832-d4d14eff0507}, ! Handle
  Wall Insulation [10],                   ! Name
  MediumRough,                            ! Roughness
  0.0971136,                              ! Thickness {m}
  0.045,                                  ! Conductivity {W/m-K}
  265,                                    ! Density {kg/m3}
  836.8,                                  ! Specific Heat {J/kg-K}
  0.9,                                    ! Thermal Absorptance
  0.7,                                    ! Solar Absorptance
  0.7;                                    ! Visible Absorptance

OS:Material,
  {b67093a3-4502-4aac-ba1c-3bf19a431d41}, ! Handle
  1/2IN Gypsum,                           ! Name
  Smooth,                                 ! Roughness
  0.01271,                                ! Thickness {m}
  0.16,                                   ! Conductivity {W/m-K}
  784.9,                                  ! Density {kg/m3}
  830,                                    ! Specific Heat {J/kg-K}
  0.9,                                    ! Thermal Absorptance
  0.92,                                   ! Solar Absorptance
  0.92;                                   ! Visible Absorptance

OS:ComponentCost:LineItem,
  {48357fe5-3456-46ae-930c-6822cb27ce08}, ! Handle
  90.1-2001 Res B18 Ext Wall Steel-Framed, ! Name
  ,                                       ! Type
  Construction,                           ! Line Item Type
  90.1-2001 Res B18 Ext Wall Steel-Framed, ! Item Name
  ,                                       ! Object End Use Key
  ,                                       ! Quantity {dimensionless}
  94.657,                                 ! Material Cost {$}
  CostPerArea;                            ! Material Cost Units

