
OS:Version,
  {40a0ab9c-deac-49c0-ac2e-55db90d9bbd6}, ! Handle
  0.9.3;                                  ! Version Identifier

OS:Material,
  {97951203-b0db-4971-a041-d83d578d942b}, ! Handle
  GP01 1/2 GYPSUM 1,                      ! Name
  Smooth,                                 ! Roughness
  0.01271,                                ! Thickness {m}
  0.16,                                   ! Conductivity {W/m-K}
  800,                                    ! Density {kg/m3}
  1090,                                   ! Specific Heat {J/kg-K}
  0.9,                                    ! Thermal Absorptance
  0.7,                                    ! Solar Absorptance
  0.5;                                    ! Visible Absorptance

OS:Material,
  {1a686f4b-a30c-4888-93d6-84b59358028f}, ! Handle
  GP01 1/2 GYPSUM,                        ! Name
  Smooth,                                 ! Roughness
  0.01271,                                ! Thickness {m}
  0.16,                                   ! Conductivity {W/m-K}
  800,                                    ! Density {kg/m3}
  1090,                                   ! Specific Heat {J/kg-K}
  0.9,                                    ! Thermal Absorptance
  0.7,                                    ! Solar Absorptance
  0.5;                                    ! Visible Absorptance

OS:Construction,
  {74abe50b-9f0d-4928-af58-470408437865}, ! Handle
  90.1-1999 Res B7 Int Wall,              ! Name
  ,                                       ! Surface Rendering Name
  {1a686f4b-a30c-4888-93d6-84b59358028f}, ! Layer 1
  {1a686f4b-a30c-4888-93d6-84b59358028f}; ! Layer 2

OS:ComponentCost:LineItem,
  {d968f76a-be1a-4889-9358-cf133319c8c5}, ! Handle
  90.1-1999 Res B7 Int Wall,              ! Name
  ,                                       ! Type
  Construction,                           ! Line Item Type
  90.1-1999 Res B7 Int Wall,              ! Item Name
  ,                                       ! Object End Use Key
  ,                                       ! Quantity {dimensionless}
  0,                                      ! Material Cost {$}
  CostPerArea;                            ! Material Cost Units

