
OS:Version,
  {f19dae6d-3342-4c69-a8ee-e332bb490aeb}, ! Handle
  0.9.3;                                  ! Version Identifier

OS:ComponentCost:LineItem,
  {047ca6a1-57f7-43a3-b9bd-93995f11a69b}, ! Handle
  AEDG-SmOffice 7A Ext Wall Steel-Framed, ! Name
  ,                                       ! Type
  Construction,                           ! Line Item Type
  AEDG-SmOffice 7A Ext Wall Steel-Framed, ! Item Name
  ,                                       ! Object End Use Key
  ,                                       ! Quantity {dimensionless}
  94.657,                                 ! Material Cost {$}
  CostPerArea;                            ! Material Cost Units

OS:Material:NoMass,
  {8605b1de-0411-49aa-ae0f-e8f316e30d66}, ! Handle
  MAT-SHEATH,                             ! Name
  Rough,                                  ! Roughness
  0.36256,                                ! Thermal Resistance {m2-K/W}
  0.9,                                    ! Thermal Absorptance
  0.7,                                    ! Solar Absorptance
  0.7;                                    ! Visible Absorptance

OS:Material,
  {45804671-e90d-48d4-a86f-32f728c5a635}, ! Handle
  Wall Insulation [10],                   ! Name
  MediumRough,                            ! Roughness
  0.0971136,                              ! Thickness {m}
  0.045,                                  ! Conductivity {W/m-K}
  265,                                    ! Density {kg/m3}
  836.8,                                  ! Specific Heat {J/kg-K}
  0.9,                                    ! Thermal Absorptance
  0.7,                                    ! Solar Absorptance
  0.7;                                    ! Visible Absorptance

OS:Material,
  {1202345c-d431-44bc-bf52-33b032c6f368}, ! Handle
  1/2IN Gypsum,                           ! Name
  Smooth,                                 ! Roughness
  0.01271,                                ! Thickness {m}
  0.16,                                   ! Conductivity {W/m-K}
  784.9,                                  ! Density {kg/m3}
  830,                                    ! Specific Heat {J/kg-K}
  0.9,                                    ! Thermal Absorptance
  0.92,                                   ! Solar Absorptance
  0.92;                                   ! Visible Absorptance

OS:Construction,
  {0af240cf-8490-4db0-9260-370c10eb26d1}, ! Handle
  AEDG-SmOffice 7A Ext Wall Steel-Framed, ! Name
  ,                                       ! Surface Rendering Name
  {8605b1de-0411-49aa-ae0f-e8f316e30d66}, ! Layer 1
  {45804671-e90d-48d4-a86f-32f728c5a635}, ! Layer 2
  {1202345c-d431-44bc-bf52-33b032c6f368}; ! Layer 3

