
OS:Version,
  {363bfbff-0ca8-407f-9ba8-11946a666ce4}, ! Handle
  0.9.3;                                  ! Version Identifier

OS:Construction,
  {984abfe5-4508-47c5-af01-87fad4126dd3}, ! Handle
  AEDG-SmOffice 4B Ext Slab Unheated - 8in Slab without Carpet, ! Name
  ,                                       ! Surface Rendering Name
  {c51421a3-343e-4e75-a6ae-45ef71bce2cc}; ! Layer 1

OS:Material,
  {c51421a3-343e-4e75-a6ae-45ef71bce2cc}, ! Handle
  MAT-CC05 8 HW CONCRETE,                 ! Name
  Rough,                                  ! Roughness
  0.20321,                                ! Thickness {m}
  1.311,                                  ! Conductivity {W/m-K}
  2240,                                   ! Density {kg/m3}
  836.8,                                  ! Specific Heat {J/kg-K}
  0.9,                                    ! Thermal Absorptance
  0.7,                                    ! Solar Absorptance
  0.7;                                    ! Visible Absorptance

OS:ComponentCost:LineItem,
  {f0760bbe-b7ba-408c-aa15-fe30dfa15639}, ! Handle
  AEDG-SmOffice 4B Ext Slab Unheated - 8in Slab without Carpet, ! Name
  ,                                       ! Type
  Construction,                           ! Line Item Type
  AEDG-SmOffice 4B Ext Slab Unheated - 8in Slab without Carpet, ! Item Name
  ,                                       ! Object End Use Key
  ,                                       ! Quantity {dimensionless}
  45.52,                                  ! Material Cost {$}
  CostPerArea;                            ! Material Cost Units

