
OS:Version,
  {093c921e-cbe2-4d0f-a0e7-2bbedd6819bb}, ! Handle
  0.9.3;                                  ! Version Identifier

OS:Construction,
  {0454c79f-a816-4b1e-89ac-473bdbdec3c1}, ! Handle
  AEDG-SmOffice 4B Ext Slab Unheated - 8in Slab without Carpet, ! Name
  ,                                       ! Surface Rendering Name
  {def64d12-dd43-4a63-bb02-13549654222b}; ! Layer 1

OS:Material,
  {def64d12-dd43-4a63-bb02-13549654222b}, ! Handle
  MAT-CC05 8 HW CONCRETE,                 ! Name
  Rough,                                  ! Roughness
  0.20321,                                ! Thickness {m}
  1.311,                                  ! Conductivity {W/m-K}
  2240,                                   ! Density {kg/m3}
  836.8,                                  ! Specific Heat {J/kg-K}
  0.9,                                    ! Thermal Absorptance
  0.7,                                    ! Solar Absorptance
  0.7;                                    ! Visible Absorptance

OS:ComponentCost:LineItem,
  {83bd578c-997e-4b2c-8840-36aececda72a}, ! Handle
  AEDG-SmOffice 4B Ext Slab Unheated - 8in Slab without Carpet, ! Name
  ,                                       ! Type
  Construction,                           ! Line Item Type
  AEDG-SmOffice 4B Ext Slab Unheated - 8in Slab without Carpet, ! Item Name
  ,                                       ! Object End Use Key
  ,                                       ! Quantity {dimensionless}
  45.52,                                  ! Material Cost {$}
  CostPerArea;                            ! Material Cost Units

OS:ComponentData,
  {e754bc23-d007-4fca-aa92-2c39b3e73e50}, ! Handle
  Component Data 1,                       ! Name
  {e7f541ba-44d6-4f53-92bb-dc14b4598cf5}, ! UUID
  {d2e25ae1-275d-4fa4-8c3d-6ab12b424cde}, ! Version UUID
  1363981952,                             ! Creation Timestamp
  1363981952,                             ! Version Timestamp
  {0454c79f-a816-4b1e-89ac-473bdbdec3c1}, ! Name of Object 1
  {def64d12-dd43-4a63-bb02-13549654222b}, ! Name of Object 2
  {83bd578c-997e-4b2c-8840-36aececda72a}; ! Name of Object 3

