
OS:Version,
  {b7e3b552-ea6b-416b-b2f8-d4fee98500d0}, ! Handle
  0.9.3;                                  ! Version Identifier

OS:Construction,
  {24047c81-8029-4276-800c-f05e709c76cd}, ! Handle
  90.1-1999 Res B11 Ext Slab Unheated - 8in Slab with Carpet, ! Name
  ,                                       ! Surface Rendering Name
  {062a74c5-ac6e-4191-8ad5-de8ad1eee123}, ! Layer 1
  {6ac6693a-ab76-4316-a6a5-2a92607d232b}; ! Layer 2

OS:Material,
  {062a74c5-ac6e-4191-8ad5-de8ad1eee123}, ! Handle
  MAT-CC05 8 HW CONCRETE,                 ! Name
  Rough,                                  ! Roughness
  0.20321,                                ! Thickness {m}
  1.311,                                  ! Conductivity {W/m-K}
  2240,                                   ! Density {kg/m3}
  836.8,                                  ! Specific Heat {J/kg-K}
  0.9,                                    ! Thermal Absorptance
  0.7,                                    ! Solar Absorptance
  0.7;                                    ! Visible Absorptance

OS:Material:NoMass,
  {6ac6693a-ab76-4316-a6a5-2a92607d232b}, ! Handle
  CP02 CARPET PAD,                        ! Name
  VeryRough,                              ! Roughness
  0.21648,                                ! Thermal Resistance {m2-K/W}
  0.9,                                    ! Thermal Absorptance
  0.7,                                    ! Solar Absorptance
  0.8;                                    ! Visible Absorptance

OS:ComponentCost:LineItem,
  {fad068e9-1043-4153-8521-ad7ee8760497}, ! Handle
  90.1-1999 Res B11 Ext Slab Unheated - 8in Slab with Carpet, ! Name
  ,                                       ! Type
  Construction,                           ! Line Item Type
  90.1-1999 Res B11 Ext Slab Unheated - 8in Slab with Carpet, ! Item Name
  ,                                       ! Object End Use Key
  ,                                       ! Quantity {dimensionless}
  45.52,                                  ! Material Cost {$}
  CostPerArea;                            ! Material Cost Units

OS:ComponentData,
  {e0a60694-dfbe-4362-ab1e-82da5daddf59}, ! Handle
  Component Data 1,                       ! Name
  {ca0fa1d4-c22c-4f67-b1aa-8ddd9788160f}, ! UUID
  {90a0f17a-f4a9-4188-890f-1805922d1e59}, ! Version UUID
  1363981211,                             ! Creation Timestamp
  1363981211,                             ! Version Timestamp
  {24047c81-8029-4276-800c-f05e709c76cd}, ! Name of Object 1
  {062a74c5-ac6e-4191-8ad5-de8ad1eee123}, ! Name of Object 2
  {6ac6693a-ab76-4316-a6a5-2a92607d232b}, ! Name of Object 3
  {fad068e9-1043-4153-8521-ad7ee8760497}; ! Name of Object 4

