
OS:Version,
  {061e672f-d83d-41ee-9730-5f3f0290c7f1}, ! Handle
  0.9.3;                                  ! Version Identifier

OS:Material,
  {8ed02225-e01e-417e-898f-cf7527d07527}, ! Handle
  Wall Insulation [10],                   ! Name
  MediumRough,                            ! Roughness
  0.0971136,                              ! Thickness {m}
  0.045,                                  ! Conductivity {W/m-K}
  265,                                    ! Density {kg/m3}
  836.8,                                  ! Specific Heat {J/kg-K}
  0.9,                                    ! Thermal Absorptance
  0.7,                                    ! Solar Absorptance
  0.7;                                    ! Visible Absorptance

OS:Material:NoMass,
  {2769860b-1eb5-4225-ac8d-e046eeb0f867}, ! Handle
  MAT-SHEATH,                             ! Name
  Rough,                                  ! Roughness
  0.36256,                                ! Thermal Resistance {m2-K/W}
  0.9,                                    ! Thermal Absorptance
  0.7,                                    ! Solar Absorptance
  0.7;                                    ! Visible Absorptance

OS:Construction,
  {bcb261d4-2a4b-4a51-9468-9180d84a9acb}, ! Handle
  90.1-1999 Res B13 Ext Wall Steel-Framed, ! Name
  ,                                       ! Surface Rendering Name
  {2769860b-1eb5-4225-ac8d-e046eeb0f867}, ! Layer 1
  {8ed02225-e01e-417e-898f-cf7527d07527}, ! Layer 2
  {bd2c154e-ee9f-465a-9e7b-23683194da42}; ! Layer 3

OS:Material,
  {bd2c154e-ee9f-465a-9e7b-23683194da42}, ! Handle
  1/2IN Gypsum,                           ! Name
  Smooth,                                 ! Roughness
  0.01271,                                ! Thickness {m}
  0.16,                                   ! Conductivity {W/m-K}
  784.9,                                  ! Density {kg/m3}
  830,                                    ! Specific Heat {J/kg-K}
  0.9,                                    ! Thermal Absorptance
  0.92,                                   ! Solar Absorptance
  0.92;                                   ! Visible Absorptance

OS:ComponentCost:LineItem,
  {f6dc941f-71b9-4a98-890d-fb9a7b8d61b3}, ! Handle
  90.1-1999 Res B13 Ext Wall Steel-Framed, ! Name
  ,                                       ! Type
  Construction,                           ! Line Item Type
  90.1-1999 Res B13 Ext Wall Steel-Framed, ! Item Name
  ,                                       ! Object End Use Key
  ,                                       ! Quantity {dimensionless}
  94.657,                                 ! Material Cost {$}
  CostPerArea;                            ! Material Cost Units

