
OS:Version,
  {71e3eb2a-ac2b-4465-86df-8c2b2953e6db}, ! Handle
  0.9.3;                                  ! Version Identifier

OS:Construction,
  {fc6e7d3f-fc05-4531-82f5-1c9fa2c2fc80}, ! Handle
  90.1-2004 Res 3A Skylight without Curb, ! Name
  ,                                       ! Surface Rendering Name
  {f15b8adf-b5a8-4297-9353-f308d7347521}; ! Layer 1

OS:WindowMaterial:Glazing,
  {f15b8adf-b5a8-4297-9353-f308d7347521}, ! Handle
  Theoretical Glass [128],                ! Name
  SpectralAverage,                        ! Optical Data Type
  ,                                       ! Window Glass Spectral Data Set Name
  0.003,                                  ! Thickness {m}
  0.346104,                               ! Solar Transmittance at Normal Incidence
  0.603896,                               ! Front Side Solar Reflectance at Normal Incidence
  0.603896,                               ! Back Side Solar Reflectance at Normal Incidence
  0.457336,                               ! Visible Transmittance at Normal Incidence
  0.492664,                               ! Front Side Visible Reflectance at Normal Incidence
  0.492664,                               ! Back Side Visible Reflectance at Normal Incidence
  0,                                      ! Infrared Transmittance at Normal Incidence
  0.999,                                  ! Front Side Infrared Hemispherical Emissivity
  0.999,                                  ! Back Side Infrared Hemispherical Emissivity
  299.383;                                ! Conductivity {W/m-K}

OS:ComponentCost:LineItem,
  {0a39b630-cad0-4c99-9e76-698e39c26cef}, ! Handle
  90.1-2004 Res 3A Skylight without Curb, ! Name
  ,                                       ! Type
  Construction,                           ! Line Item Type
  90.1-2004 Res 3A Skylight without Curb, ! Item Name
  ,                                       ! Object End Use Key
  ,                                       ! Quantity {dimensionless}
  498.248,                                ! Material Cost {$}
  CostPerArea;                            ! Material Cost Units

