
OS:Version,
  {d3507e2c-71ab-4b65-8873-65315e43efee}, ! Handle
  0.9.3;                                  ! Version Identifier

OS:Construction,
  {20860fae-2b56-4877-b5e5-1a5abc96fbb8}, ! Handle
  90.1-2007 Res 4B Ext Wall Steel-Framed, ! Name
  ,                                       ! Surface Rendering Name
  {b71f361f-18ac-4eb4-b9a0-cd380a7fdb0f}, ! Layer 1
  {79d49dc6-49f5-43c6-976d-4a90365d29d4}, ! Layer 2
  {004ea3b4-c196-4a8e-bb34-5fb9b68debd7}; ! Layer 3

OS:Material:NoMass,
  {b71f361f-18ac-4eb4-b9a0-cd380a7fdb0f}, ! Handle
  MAT-SHEATH,                             ! Name
  Rough,                                  ! Roughness
  0.36256,                                ! Thermal Resistance {m2-K/W}
  0.9,                                    ! Thermal Absorptance
  0.7,                                    ! Solar Absorptance
  0.7;                                    ! Visible Absorptance

OS:Material,
  {79d49dc6-49f5-43c6-976d-4a90365d29d4}, ! Handle
  Wall Insulation [27],                   ! Name
  MediumRough,                            ! Roughness
  0.097254,                               ! Thickness {m}
  0.045,                                  ! Conductivity {W/m-K}
  265,                                    ! Density {kg/m3}
  836.8,                                  ! Specific Heat {J/kg-K}
  0.9,                                    ! Thermal Absorptance
  0.7,                                    ! Solar Absorptance
  0.7;                                    ! Visible Absorptance

OS:Material,
  {004ea3b4-c196-4a8e-bb34-5fb9b68debd7}, ! Handle
  1/2IN Gypsum,                           ! Name
  Smooth,                                 ! Roughness
  0.01271,                                ! Thickness {m}
  0.16,                                   ! Conductivity {W/m-K}
  784.9,                                  ! Density {kg/m3}
  830,                                    ! Specific Heat {J/kg-K}
  0.9,                                    ! Thermal Absorptance
  0.92,                                   ! Solar Absorptance
  0.92;                                   ! Visible Absorptance

OS:ComponentCost:LineItem,
  {c27ff6fc-f3e0-46c7-bf38-85246af783b3}, ! Handle
  90.1-2007 Res 4B Ext Wall Steel-Framed, ! Name
  ,                                       ! Type
  Construction,                           ! Line Item Type
  90.1-2007 Res 4B Ext Wall Steel-Framed, ! Item Name
  ,                                       ! Object End Use Key
  ,                                       ! Quantity {dimensionless}
  94.681,                                 ! Material Cost {$}
  CostPerArea;                            ! Material Cost Units

